/*---------------------------------------------------------------------------*\
  =========                 |
  \\      /  F ield         | OpenFOAM: The Open Source CFD Toolbox
   \\    /   O peration     | Website:  https://openfoam.org
    \\  /    A nd           | Version:  7
     \\/     M anipulation  |
\*---------------------------------------------------------------------------*/
Build  : 7-3bcbaf946ae9
Exec   : simpleFoam
Date   : Jul 19 2022
Time   : 10:24:54
Host   : "Lubuntu"
PID    : 234202
I/O    : uncollated
Case   : /home/ensm_student/Documents/CFD/Rechnerubung/Week07/Parameterstudien_mit_RANS/data/raw/AOA_8
nProcs : 1
sigFpe : Enabling floating point exception trapping (FOAM_SIGFPE).
fileModificationChecking : Monitoring run-time modified files using timeStampMaster (fileModificationSkew 10)
allowSystemOperations : Allowing user-supplied system call operations

// * * * * * * * * * * * * * * * * * * * * * * * * * * * * * * * * * * * * * //
Create time

Using #calcEntry at line 21 in file "/home/ensm_student/Documents/CFD/Rechnerubung/Week07/Parameterstudien_mit_RANS/data/raw/AOA_8/system/controlDict.functions"
Using #codeStream with "/home/ensm_student/Documents/CFD/Rechnerubung/Week07/Parameterstudien_mit_RANS/data/raw/AOA_8/dynamicCode/platforms/linux64GccDPInt32Opt/lib/libcodeStream_b2fc2a58e6930d1402d4a19d54907d1dc0b91591.so"
Using #calcEntry at line 27 in file "/home/ensm_student/Documents/CFD/Rechnerubung/Week07/Parameterstudien_mit_RANS/data/raw/AOA_8/system/controlDict.functions"
Using #codeStream with "/home/ensm_student/Documents/CFD/Rechnerubung/Week07/Parameterstudien_mit_RANS/data/raw/AOA_8/dynamicCode/platforms/linux64GccDPInt32Opt/lib/libcodeStream_8c6314a787acd8194b0cf8679b363212e627d5db.so"
Using #calcEntry at line 32 in file "/home/ensm_student/Documents/CFD/Rechnerubung/Week07/Parameterstudien_mit_RANS/data/raw/AOA_8/system/controlDict.functions"
Using #codeStream with "/home/ensm_student/Documents/CFD/Rechnerubung/Week07/Parameterstudien_mit_RANS/data/raw/AOA_8/dynamicCode/platforms/linux64GccDPInt32Opt/lib/libcodeStream_844c9c693dfc906dd46778e4cc636c418aa6a075.so"
Using #calcEntry at line 34 in file "/home/ensm_student/Documents/CFD/Rechnerubung/Week07/Parameterstudien_mit_RANS/data/raw/AOA_8/system/controlDict.functions"
Using #codeStream with "/home/ensm_student/Documents/CFD/Rechnerubung/Week07/Parameterstudien_mit_RANS/data/raw/AOA_8/dynamicCode/platforms/linux64GccDPInt32Opt/lib/libcodeStream_8b9df0e8700141fc89ea5daab014598dae76de38.so"
Using #calcEntry at line 22 in file "/home/ensm_student/Documents/CFD/Rechnerubung/Week07/Parameterstudien_mit_RANS/data/raw/AOA_8/system/controlDict.functions"
Using #codeStream with "/home/ensm_student/Documents/CFD/Rechnerubung/Week07/Parameterstudien_mit_RANS/data/raw/AOA_8/dynamicCode/platforms/linux64GccDPInt32Opt/lib/libcodeStream_c27f5bf1830c484ba1c9c2d35cad127458814a67.so"
Using #calcEntry at line 22 in file "/home/ensm_student/Documents/CFD/Rechnerubung/Week07/Parameterstudien_mit_RANS/data/raw/AOA_8/system/controlDict.functions"
Using #codeStream with "/home/ensm_student/Documents/CFD/Rechnerubung/Week07/Parameterstudien_mit_RANS/data/raw/AOA_8/dynamicCode/platforms/linux64GccDPInt32Opt/lib/libcodeStream_2ef2f8446ea56cd1a8d8343baf06469da88ad043.so"
Using #calcEntry at line 23 in file "/home/ensm_student/Documents/CFD/Rechnerubung/Week07/Parameterstudien_mit_RANS/data/raw/AOA_8/system/controlDict.functions"
Using #calcEntry at line 23 in file "/home/ensm_student/Documents/CFD/Rechnerubung/Week07/Parameterstudien_mit_RANS/data/raw/AOA_8/system/controlDict.functions"
Using #codeStream with "/home/ensm_student/Documents/CFD/Rechnerubung/Week07/Parameterstudien_mit_RANS/data/raw/AOA_8/dynamicCode/platforms/linux64GccDPInt32Opt/lib/libcodeStream_ea1d408d53780a5dc22c5bf78b3dba2a0e4a726f.so"
Create mesh for time = 0


SIMPLE: Convergence criteria found
        p: tolerance 0.01
        U: tolerance 0.02
        "(k|omega)": tolerance 0.001

Reading field p

Reading field U

Using #calcEntry at line 21 in file "/home/ensm_student/Documents/CFD/Rechnerubung/Week07/Parameterstudien_mit_RANS/data/raw/AOA_8/0/U"
Using #calcEntry at line 27 in file "/home/ensm_student/Documents/CFD/Rechnerubung/Week07/Parameterstudien_mit_RANS/data/raw/AOA_8/0/U"
Using #calcEntry at line 32 in file "/home/ensm_student/Documents/CFD/Rechnerubung/Week07/Parameterstudien_mit_RANS/data/raw/AOA_8/0/U"
Using #calcEntry at line 34 in file "/home/ensm_student/Documents/CFD/Rechnerubung/Week07/Parameterstudien_mit_RANS/data/raw/AOA_8/0/U"
Using #calcEntry at line 25 in file "/home/ensm_student/Documents/CFD/Rechnerubung/Week07/Parameterstudien_mit_RANS/data/raw/AOA_8/0/U"
Using #codeStream with "/home/ensm_student/Documents/CFD/Rechnerubung/Week07/Parameterstudien_mit_RANS/data/raw/AOA_8/dynamicCode/platforms/linux64GccDPInt32Opt/lib/libcodeStream_2ead07346620ffa9634aeebd2bbe87df53549a44.so"
Creating new library in "dynamicCode/_2ead07346620ffa9634aeebd2bbe87df53549a44/platforms/linux64GccDPInt32Opt/lib/libcodeStream_2ead07346620ffa9634aeebd2bbe87df53549a44.so"
Invoking "wmake -s libso /home/ensm_student/Documents/CFD/Rechnerubung/Week07/Parameterstudien_mit_RANS/data/raw/AOA_8/dynamicCode/_2ead07346620ffa9634aeebd2bbe87df53549a44"
wmake libso /home/ensm_student/Documents/CFD/Rechnerubung/Week07/Parameterstudien_mit_RANS/data/raw/AOA_8/dynamicCode/_2ead07346620ffa9634aeebd2bbe87df53549a44
    wmkdep: codeStreamTemplate.C
    Ctoo: codeStreamTemplate.C
    ld: /home/ensm_student/Documents/CFD/Rechnerubung/Week07/Parameterstudien_mit_RANS/data/raw/AOA_8/dynamicCode/_2ead07346620ffa9634aeebd2bbe87df53549a44/../platforms/linux64GccDPInt32Opt/lib/libcodeStream_2ead07346620ffa9634aeebd2bbe87df53549a44.so
Using #calcEntry at line 25 in file "/home/ensm_student/Documents/CFD/Rechnerubung/Week07/Parameterstudien_mit_RANS/data/raw/AOA_8/0/U"
Using #codeStream with "/home/ensm_student/Documents/CFD/Rechnerubung/Week07/Parameterstudien_mit_RANS/data/raw/AOA_8/dynamicCode/platforms/linux64GccDPInt32Opt/lib/libcodeStream_44b00c6e8805f218edd4420ca11e331ab85173a6.so"
Creating new library in "dynamicCode/_44b00c6e8805f218edd4420ca11e331ab85173a6/platforms/linux64GccDPInt32Opt/lib/libcodeStream_44b00c6e8805f218edd4420ca11e331ab85173a6.so"
Invoking "wmake -s libso /home/ensm_student/Documents/CFD/Rechnerubung/Week07/Parameterstudien_mit_RANS/data/raw/AOA_8/dynamicCode/_44b00c6e8805f218edd4420ca11e331ab85173a6"
wmake libso /home/ensm_student/Documents/CFD/Rechnerubung/Week07/Parameterstudien_mit_RANS/data/raw/AOA_8/dynamicCode/_44b00c6e8805f218edd4420ca11e331ab85173a6
    wmkdep: codeStreamTemplate.C
    Ctoo: codeStreamTemplate.C
    ld: /home/ensm_student/Documents/CFD/Rechnerubung/Week07/Parameterstudien_mit_RANS/data/raw/AOA_8/dynamicCode/_44b00c6e8805f218edd4420ca11e331ab85173a6/../platforms/linux64GccDPInt32Opt/lib/libcodeStream_44b00c6e8805f218edd4420ca11e331ab85173a6.so
Reading/calculating face flux field phi

Selecting incompressible transport model Newtonian
Selecting turbulence model type RAS
Selecting RAS turbulence model kOmegaSST
Using #calcEntry at line 21 in file "/home/ensm_student/Documents/CFD/Rechnerubung/Week07/Parameterstudien_mit_RANS/data/raw/AOA_8/0/nut"
Using #calcEntry at line 27 in file "/home/ensm_student/Documents/CFD/Rechnerubung/Week07/Parameterstudien_mit_RANS/data/raw/AOA_8/0/nut"
Using #calcEntry at line 32 in file "/home/ensm_student/Documents/CFD/Rechnerubung/Week07/Parameterstudien_mit_RANS/data/raw/AOA_8/0/nut"
Using #calcEntry at line 34 in file "/home/ensm_student/Documents/CFD/Rechnerubung/Week07/Parameterstudien_mit_RANS/data/raw/AOA_8/0/nut"
Selecting patchDistMethod meshWave
Using #calcEntry at line 21 in file "/home/ensm_student/Documents/CFD/Rechnerubung/Week07/Parameterstudien_mit_RANS/data/raw/AOA_8/0/k"
Using #calcEntry at line 27 in file "/home/ensm_student/Documents/CFD/Rechnerubung/Week07/Parameterstudien_mit_RANS/data/raw/AOA_8/0/k"
Using #calcEntry at line 32 in file "/home/ensm_student/Documents/CFD/Rechnerubung/Week07/Parameterstudien_mit_RANS/data/raw/AOA_8/0/k"
Using #calcEntry at line 34 in file "/home/ensm_student/Documents/CFD/Rechnerubung/Week07/Parameterstudien_mit_RANS/data/raw/AOA_8/0/k"
Using #calcEntry at line 21 in file "/home/ensm_student/Documents/CFD/Rechnerubung/Week07/Parameterstudien_mit_RANS/data/raw/AOA_8/0/omega"
Using #calcEntry at line 27 in file "/home/ensm_student/Documents/CFD/Rechnerubung/Week07/Parameterstudien_mit_RANS/data/raw/AOA_8/0/omega"
Using #calcEntry at line 32 in file "/home/ensm_student/Documents/CFD/Rechnerubung/Week07/Parameterstudien_mit_RANS/data/raw/AOA_8/0/omega"
Using #calcEntry at line 34 in file "/home/ensm_student/Documents/CFD/Rechnerubung/Week07/Parameterstudien_mit_RANS/data/raw/AOA_8/0/omega"
RAS
{
    RASModel        kOmegaSST;
    turbulence      on;
    printCoeffs     on;
    alphaK1         0.85;
    alphaK2         1;
    alphaOmega1     0.5;
    alphaOmega2     0.856;
    gamma1          0.555556;
    gamma2          0.44;
    beta1           0.075;
    beta2           0.0828;
    betaStar        0.09;
    a1              0.31;
    b1              1;
    c1              10;
    F3              false;
}

No MRF models present

No finite volume options present

Starting time loop

--> FOAM Warning : 
    From function bool Foam::functionObjectList::read()
    in file db/functionObjects/functionObjectList/functionObjectList.C at line 682
    Reading "/home/ensm_student/Documents/CFD/Rechnerubung/Week07/Parameterstudien_mit_RANS/data/raw/AOA_8/system/controlDict" from line 18 to line 17
    Entry mag_U_infty is not a dictionary
--> FOAM Warning : 
    From function bool Foam::functionObjectList::read()
    in file db/functionObjects/functionObjectList/functionObjectList.C at line 682
    Reading "/home/ensm_student/Documents/CFD/Rechnerubung/Week07/Parameterstudien_mit_RANS/data/raw/AOA_8/system/controlDict" from line 18 to line 17
    Entry alpha_DEG is not a dictionary
--> FOAM Warning : 
    From function bool Foam::functionObjectList::read()
    in file db/functionObjects/functionObjectList/functionObjectList.C at line 682
    Reading "/home/ensm_student/Documents/CFD/Rechnerubung/Week07/Parameterstudien_mit_RANS/data/raw/AOA_8/system/controlDict" from line 18 to line 17
    Entry alpha_RAD is not a dictionary
--> FOAM Warning : 
    From function bool Foam::functionObjectList::read()
    in file db/functionObjects/functionObjectList/functionObjectList.C at line 682
    Reading "/home/ensm_student/Documents/CFD/Rechnerubung/Week07/Parameterstudien_mit_RANS/data/raw/AOA_8/system/controlDict" from line 18 to line 17
    Entry intensity is not a dictionary
--> FOAM Warning : 
    From function bool Foam::functionObjectList::read()
    in file db/functionObjects/functionObjectList/functionObjectList.C at line 682
    Reading "/home/ensm_student/Documents/CFD/Rechnerubung/Week07/Parameterstudien_mit_RANS/data/raw/AOA_8/system/controlDict" from line 18 to line 17
    Entry k_inlet is not a dictionary
--> FOAM Warning : 
    From function bool Foam::functionObjectList::read()
    in file db/functionObjects/functionObjectList/functionObjectList.C at line 682
    Reading "/home/ensm_student/Documents/CFD/Rechnerubung/Week07/Parameterstudien_mit_RANS/data/raw/AOA_8/system/controlDict" from line 18 to line 17
    Entry beta_1 is not a dictionary
--> FOAM Warning : 
    From function bool Foam::functionObjectList::read()
    in file db/functionObjects/functionObjectList/functionObjectList.C at line 682
    Reading "/home/ensm_student/Documents/CFD/Rechnerubung/Week07/Parameterstudien_mit_RANS/data/raw/AOA_8/system/controlDict" from line 18 to line 17
    Entry nu is not a dictionary
--> FOAM Warning : 
    From function bool Foam::functionObjectList::read()
    in file db/functionObjects/functionObjectList/functionObjectList.C at line 682
    Reading "/home/ensm_student/Documents/CFD/Rechnerubung/Week07/Parameterstudien_mit_RANS/data/raw/AOA_8/system/controlDict" from line 18 to line 17
    Entry del_y_1 is not a dictionary
--> FOAM Warning : 
    From function bool Foam::functionObjectList::read()
    in file db/functionObjects/functionObjectList/functionObjectList.C at line 682
    Reading "/home/ensm_student/Documents/CFD/Rechnerubung/Week07/Parameterstudien_mit_RANS/data/raw/AOA_8/system/controlDict" from line 18 to line 17
    Entry omega is not a dictionary
--> FOAM Warning : 
    From function bool Foam::functionObjectList::read()
    in file db/functionObjects/functionObjectList/functionObjectList.C at line 682
    Reading "/home/ensm_student/Documents/CFD/Rechnerubung/Week07/Parameterstudien_mit_RANS/data/raw/AOA_8/system/controlDict" from line 18 to line 17
    Entry nut is not a dictionary
--> FOAM Warning : 
    From function bool Foam::functionObjectList::read()
    in file db/functionObjects/functionObjectList/functionObjectList.C at line 682
    Reading "/home/ensm_student/Documents/CFD/Rechnerubung/Week07/Parameterstudien_mit_RANS/data/raw/AOA_8/system/controlDict" from line 18 to line 17
    Entry x_ is not a dictionary
--> FOAM Warning : 
    From function bool Foam::functionObjectList::read()
    in file db/functionObjects/functionObjectList/functionObjectList.C at line 682
    Reading "/home/ensm_student/Documents/CFD/Rechnerubung/Week07/Parameterstudien_mit_RANS/data/raw/AOA_8/system/controlDict" from line 18 to line 17
    Entry y_ is not a dictionary
--> FOAM Warning : 
    From function void Foam::timeControl::read(const Foam::dictionary&)
    in file db/functionObjects/timeControl/timeControl.C at line 89
    Reading "/home/ensm_student/Documents/CFD/Rechnerubung/Week07/Parameterstudien_mit_RANS/data/raw/AOA_8/system/controlDict.functions.forceCoeffs_object" from line 28 to line 48
    Using deprecated 'outputControl'
    Please use 'writeControl' with 'writeInterval'
forces forceCoeffs_object:
    Not including porosity effects
forceCoeffs forceCoeffs_object:
    Not including porosity effects
--> FOAM Warning : 
    From function void Foam::timeControl::read(const Foam::dictionary&)
    in file db/functionObjects/timeControl/timeControl.C at line 89
    Reading "/home/ensm_student/Documents/CFD/Rechnerubung/Week07/Parameterstudien_mit_RANS/data/raw/AOA_8/system/controlDict.functions.residuals" from line 19 to line 31
    Using deprecated 'outputControl'
    Please use 'writeControl' with 'writeInterval'
Time = 1

smoothSolver:  Solving for Ux, Initial residual = 1, Final residual = 0.081174, No Iterations 23
smoothSolver:  Solving for Uy, Initial residual = 1, Final residual = 0.0813423, No Iterations 23
GAMG:  Solving for p, Initial residual = 1, Final residual = 0.00818937, No Iterations 23
time step continuity errors : sum local = 4.32884e-05, global = 8.36959e-06, cumulative = 8.36959e-06
smoothSolver:  Solving for omega, Initial residual = 0.00143709, Final residual = 0.000133637, No Iterations 3
bounding omega, min: -2.88843 max: 1873.49 average: 22.2014
smoothSolver:  Solving for k, Initial residual = 1, Final residual = 0.0542618, No Iterations 3
ExecutionTime = 0.1 s  ClockTime = 1 s

forceCoeffs forceCoeffs_object write:
    Cm    = -0.190742
    Cd    = 0.963355
    Cl    = 0.0868247
    Cl(f) = -0.147329
    Cl(r) = 0.234154

Time = 2

smoothSolver:  Solving for Ux, Initial residual = 0.0139403, Final residual = 0.00134515, No Iterations 13
smoothSolver:  Solving for Uy, Initial residual = 0.186177, Final residual = 0.0173398, No Iterations 13
GAMG:  Solving for p, Initial residual = 0.113042, Final residual = 0.00109486, No Iterations 17
time step continuity errors : sum local = 0.000126754, global = 5.06555e-05, cumulative = 5.90251e-05
smoothSolver:  Solving for omega, Initial residual = 0.00288808, Final residual = 0.000203132, No Iterations 3
bounding omega, min: -216.004 max: 6946.46 average: 29.9959
smoothSolver:  Solving for k, Initial residual = 0.235279, Final residual = 0.0149926, No Iterations 3
ExecutionTime = 0.13 s  ClockTime = 1 s

forceCoeffs forceCoeffs_object write:
    Cm    = -0.138011
    Cd    = 0.600392
    Cl    = 0.0931289
    Cl(f) = -0.0914469
    Cl(r) = 0.184576

Time = 3

smoothSolver:  Solving for Ux, Initial residual = 0.00737692, Final residual = 0.000732351, No Iterations 11
smoothSolver:  Solving for Uy, Initial residual = 0.0676428, Final residual = 0.00618589, No Iterations 10
GAMG:  Solving for p, Initial residual = 0.0732148, Final residual = 0.000643285, No Iterations 19
time step continuity errors : sum local = 9.68202e-05, global = -3.2e-05, cumulative = 2.70251e-05
smoothSolver:  Solving for omega, Initial residual = 0.00341153, Final residual = 0.000207018, No Iterations 4
bounding omega, min: -7.71999 max: 9955.36 average: 53.3237
smoothSolver:  Solving for k, Initial residual = 0.0746868, Final residual = 0.00497384, No Iterations 3
ExecutionTime = 0.16 s  ClockTime = 1 s

forceCoeffs forceCoeffs_object write:
    Cm    = -0.147762
    Cd    = 0.605598
    Cl    = 0.0280425
    Cl(f) = -0.13374
    Cl(r) = 0.161783

Time = 4

smoothSolver:  Solving for Ux, Initial residual = 0.00636132, Final residual = 0.000595678, No Iterations 10
smoothSolver:  Solving for Uy, Initial residual = 0.0334417, Final residual = 0.00314462, No Iterations 10
GAMG:  Solving for p, Initial residual = 0.250312, Final residual = 0.00246852, No Iterations 22
time step continuity errors : sum local = 8.07756e-05, global = 4.86557e-05, cumulative = 7.56808e-05
smoothSolver:  Solving for omega, Initial residual = 0.00176364, Final residual = 0.0001041, No Iterations 3
smoothSolver:  Solving for k, Initial residual = 0.0274612, Final residual = 0.00190222, No Iterations 3
ExecutionTime = 0.19 s  ClockTime = 1 s

forceCoeffs forceCoeffs_object write:
    Cm    = -0.12572
    Cd    = 0.639928
    Cl    = -0.0232655
    Cl(f) = -0.137353
    Cl(r) = 0.114087

Time = 5

smoothSolver:  Solving for Ux, Initial residual = 0.00529441, Final residual = 0.000505146, No Iterations 9
smoothSolver:  Solving for Uy, Initial residual = 0.0241955, Final residual = 0.00217435, No Iterations 10
GAMG:  Solving for p, Initial residual = 0.163577, Final residual = 0.00159401, No Iterations 23
time step continuity errors : sum local = 7.0736e-05, global = -3.08483e-05, cumulative = 4.48326e-05
smoothSolver:  Solving for omega, Initial residual = 0.00126867, Final residual = 8.39112e-05, No Iterations 3
smoothSolver:  Solving for k, Initial residual = 0.00929227, Final residual = 0.000644227, No Iterations 3
ExecutionTime = 0.22 s  ClockTime = 1 s

forceCoeffs forceCoeffs_object write:
    Cm    = -0.110435
    Cd    = 0.643844
    Cl    = -0.0493336
    Cl(f) = -0.135102
    Cl(r) = 0.0857682

Time = 6

smoothSolver:  Solving for Ux, Initial residual = 0.00467244, Final residual = 0.000403722, No Iterations 9
smoothSolver:  Solving for Uy, Initial residual = 0.0167167, Final residual = 0.00146267, No Iterations 11
GAMG:  Solving for p, Initial residual = 0.1435, Final residual = 0.00139437, No Iterations 14
time step continuity errors : sum local = 6.4253e-05, global = -3.11885e-05, cumulative = 1.36441e-05
smoothSolver:  Solving for omega, Initial residual = 0.000979304, Final residual = 4.23525e-05, No Iterations 3
smoothSolver:  Solving for k, Initial residual = 0.00448995, Final residual = 0.000273125, No Iterations 3
ExecutionTime = 0.24 s  ClockTime = 1 s

forceCoeffs forceCoeffs_object write:
    Cm    = -0.13376
    Cd    = 0.688371
    Cl    = -0.0581668
    Cl(f) = -0.162843
    Cl(r) = 0.104676

Time = 7

smoothSolver:  Solving for Ux, Initial residual = 0.00429773, Final residual = 0.000352694, No Iterations 9
smoothSolver:  Solving for Uy, Initial residual = 0.012697, Final residual = 0.00123857, No Iterations 11
GAMG:  Solving for p, Initial residual = 0.143645, Final residual = 0.00133679, No Iterations 18
time step continuity errors : sum local = 5.52092e-05, global = -2.86723e-05, cumulative = -1.50282e-05
smoothSolver:  Solving for omega, Initial residual = 0.000673712, Final residual = 6.45457e-05, No Iterations 2
smoothSolver:  Solving for k, Initial residual = 0.00341286, Final residual = 0.000196446, No Iterations 3
bounding k, min: -0.0117732 max: 4.57085 average: 0.0187476
ExecutionTime = 0.27 s  ClockTime = 1 s

forceCoeffs forceCoeffs_object write:
    Cm    = -0.154521
    Cd    = 0.763922
    Cl    = -0.0651914
    Cl(f) = -0.187116
    Cl(r) = 0.121925

Time = 8

smoothSolver:  Solving for Ux, Initial residual = 0.00388462, Final residual = 0.000330591, No Iterations 9
smoothSolver:  Solving for Uy, Initial residual = 0.0109928, Final residual = 0.00108337, No Iterations 11
GAMG:  Solving for p, Initial residual = 0.143883, Final residual = 0.00119545, No Iterations 16
time step continuity errors : sum local = 4.51521e-05, global = -1.87336e-05, cumulative = -3.37617e-05
smoothSolver:  Solving for omega, Initial residual = 0.000576568, Final residual = 2.58496e-05, No Iterations 3
smoothSolver:  Solving for k, Initial residual = 0.00204319, Final residual = 0.000109176, No Iterations 3
ExecutionTime = 0.3 s  ClockTime = 1 s

forceCoeffs forceCoeffs_object write:
    Cm    = -0.159464
    Cd    = 0.809661
    Cl    = -0.0695449
    Cl(f) = -0.194237
    Cl(r) = 0.124692

Time = 9

smoothSolver:  Solving for Ux, Initial residual = 0.00383963, Final residual = 0.000344939, No Iterations 9
smoothSolver:  Solving for Uy, Initial residual = 0.00945743, Final residual = 0.000851108, No Iterations 12
GAMG:  Solving for p, Initial residual = 0.108343, Final residual = 0.000928402, No Iterations 19
time step continuity errors : sum local = 3.75472e-05, global = 1.66528e-05, cumulative = -1.71089e-05
smoothSolver:  Solving for omega, Initial residual = 0.000459584, Final residual = 1.93211e-05, No Iterations 3
smoothSolver:  Solving for k, Initial residual = 0.0018052, Final residual = 9.41646e-05, No Iterations 3
bounding k, min: -0.0063894 max: 4.68131 average: 0.0239011
ExecutionTime = 0.33 s  ClockTime = 1 s

forceCoeffs forceCoeffs_object write:
    Cm    = -0.16236
    Cd    = 0.841566
    Cl    = -0.0732791
    Cl(f) = -0.199
    Cl(r) = 0.125721

Time = 10

smoothSolver:  Solving for Ux, Initial residual = 0.00405231, Final residual = 0.000372179, No Iterations 9
smoothSolver:  Solving for Uy, Initial residual = 0.00889224, Final residual = 0.000786358, No Iterations 12
GAMG:  Solving for p, Initial residual = 0.121379, Final residual = 0.00115887, No Iterations 17
time step continuity errors : sum local = 4.22463e-05, global = 1.70248e-05, cumulative = -8.41635e-08
smoothSolver:  Solving for omega, Initial residual = 0.000431308, Final residual = 1.71575e-05, No Iterations 3
smoothSolver:  Solving for k, Initial residual = 0.00150461, Final residual = 7.56051e-05, No Iterations 3
ExecutionTime = 0.36 s  ClockTime = 1 s

forceCoeffs forceCoeffs_object write:
    Cm    = -0.16085
    Cd    = 0.862832
    Cl    = -0.077954
    Cl(f) = -0.199827
    Cl(r) = 0.121873

Time = 11

smoothSolver:  Solving for Ux, Initial residual = 0.00408352, Final residual = 0.000351965, No Iterations 10
smoothSolver:  Solving for Uy, Initial residual = 0.00840181, Final residual = 0.00083859, No Iterations 11
GAMG:  Solving for p, Initial residual = 0.108032, Final residual = 0.000864918, No Iterations 15
time step continuity errors : sum local = 3.59851e-05, global = 1.50817e-05, cumulative = 1.49975e-05
smoothSolver:  Solving for omega, Initial residual = 0.00037964, Final residual = 1.53961e-05, No Iterations 3
smoothSolver:  Solving for k, Initial residual = 0.00128096, Final residual = 6.50197e-05, No Iterations 3
ExecutionTime = 0.38 s  ClockTime = 1 s

forceCoeffs forceCoeffs_object write:
    Cm    = -0.15724
    Cd    = 0.86071
    Cl    = -0.0785948
    Cl(f) = -0.196538
    Cl(r) = 0.117943

Time = 12

smoothSolver:  Solving for Ux, Initial residual = 0.00410318, Final residual = 0.000392721, No Iterations 9
smoothSolver:  Solving for Uy, Initial residual = 0.00853743, Final residual = 0.000786243, No Iterations 11
GAMG:  Solving for p, Initial residual = 0.0831081, Final residual = 0.000707596, No Iterations 15
time step continuity errors : sum local = 3.65329e-05, global = 1.4068e-05, cumulative = 2.90656e-05
smoothSolver:  Solving for omega, Initial residual = 0.000364107, Final residual = 3.2528e-05, No Iterations 2
smoothSolver:  Solving for k, Initial residual = 0.00111995, Final residual = 5.38753e-05, No Iterations 3
ExecutionTime = 0.41 s  ClockTime = 1 s

forceCoeffs forceCoeffs_object write:
    Cm    = -0.156757
    Cd    = 0.863993
    Cl    = -0.0784308
    Cl(f) = -0.195972
    Cl(r) = 0.117541

Time = 13

smoothSolver:  Solving for Ux, Initial residual = 0.00395893, Final residual = 0.000342829, No Iterations 10
smoothSolver:  Solving for Uy, Initial residual = 0.00841355, Final residual = 0.000743647, No Iterations 11
GAMG:  Solving for p, Initial residual = 0.0575576, Final residual = 0.000470374, No Iterations 15
time step continuity errors : sum local = 3.1721e-05, global = 1.02945e-05, cumulative = 3.93601e-05
smoothSolver:  Solving for omega, Initial residual = 0.000357587, Final residual = 2.97121e-05, No Iterations 2
smoothSolver:  Solving for k, Initial residual = 0.000990431, Final residual = 4.56764e-05, No Iterations 3
ExecutionTime = 0.43 s  ClockTime = 1 s

forceCoeffs forceCoeffs_object write:
    Cm    = -0.161558
    Cd    = 0.869264
    Cl    = -0.0771476
    Cl(f) = -0.200132
    Cl(r) = 0.122984

Time = 14

smoothSolver:  Solving for Ux, Initial residual = 0.00378069, Final residual = 0.000330462, No Iterations 10
smoothSolver:  Solving for Uy, Initial residual = 0.00855518, Final residual = 0.000831068, No Iterations 10
GAMG:  Solving for p, Initial residual = 0.0442173, Final residual = 0.000356896, No Iterations 15
time step continuity errors : sum local = 2.84927e-05, global = 7.64569e-06, cumulative = 4.70058e-05
smoothSolver:  Solving for omega, Initial residual = 0.000322804, Final residual = 2.64911e-05, No Iterations 2
smoothSolver:  Solving for k, Initial residual = 0.000929467, Final residual = 4.13047e-05, No Iterations 3
ExecutionTime = 0.46 s  ClockTime = 1 s

forceCoeffs forceCoeffs_object write:
    Cm    = -0.173004
    Cd    = 0.88742
    Cl    = -0.0761908
    Cl(f) = -0.211099
    Cl(r) = 0.134909

Time = 15

smoothSolver:  Solving for Ux, Initial residual = 0.00352002, Final residual = 0.000319162, No Iterations 10
smoothSolver:  Solving for Uy, Initial residual = 0.00851575, Final residual = 0.000811071, No Iterations 10
GAMG:  Solving for p, Initial residual = 0.0343145, Final residual = 0.000280551, No Iterations 15
time step continuity errors : sum local = 2.69132e-05, global = 5.71138e-06, cumulative = 5.27172e-05
smoothSolver:  Solving for omega, Initial residual = 0.000307593, Final residual = 2.69214e-05, No Iterations 2
smoothSolver:  Solving for k, Initial residual = 0.000896827, Final residual = 3.90636e-05, No Iterations 3
ExecutionTime = 0.48 s  ClockTime = 1 s

forceCoeffs forceCoeffs_object write:
    Cm    = -0.187672
    Cd    = 0.910536
    Cl    = -0.0753957
    Cl(f) = -0.22537
    Cl(r) = 0.149974

Time = 16

smoothSolver:  Solving for Ux, Initial residual = 0.00330488, Final residual = 0.000311012, No Iterations 10
smoothSolver:  Solving for Uy, Initial residual = 0.00856694, Final residual = 0.000788567, No Iterations 10
GAMG:  Solving for p, Initial residual = 0.0267849, Final residual = 0.000266104, No Iterations 16
time step continuity errors : sum local = 2.96473e-05, global = -1.76771e-05, cumulative = 3.50401e-05
smoothSolver:  Solving for omega, Initial residual = 0.000309019, Final residual = 2.64663e-05, No Iterations 2
smoothSolver:  Solving for k, Initial residual = 0.000925993, Final residual = 8.65799e-05, No Iterations 2
ExecutionTime = 0.51 s  ClockTime = 1 s

forceCoeffs forceCoeffs_object write:
    Cm    = -0.20461
    Cd    = 0.93676
    Cl    = -0.0745186
    Cl(f) = -0.241869
    Cl(r) = 0.16735

Time = 17

smoothSolver:  Solving for Ux, Initial residual = 0.0031353, Final residual = 0.000306769, No Iterations 10
smoothSolver:  Solving for Uy, Initial residual = 0.00859213, Final residual = 0.000770738, No Iterations 10
GAMG:  Solving for p, Initial residual = 0.0220564, Final residual = 0.000210933, No Iterations 20
time step continuity errors : sum local = 2.68872e-05, global = -1.54843e-05, cumulative = 1.95558e-05
smoothSolver:  Solving for omega, Initial residual = 0.000329632, Final residual = 2.6874e-05, No Iterations 2
smoothSolver:  Solving for k, Initial residual = 0.000956963, Final residual = 8.71282e-05, No Iterations 2
ExecutionTime = 0.54 s  ClockTime = 1 s

forceCoeffs forceCoeffs_object write:
    Cm    = -0.223552
    Cd    = 0.963598
    Cl    = -0.0736906
    Cl(f) = -0.260397
    Cl(r) = 0.186707

Time = 18

smoothSolver:  Solving for Ux, Initial residual = 0.00304228, Final residual = 0.000302436, No Iterations 10
smoothSolver:  Solving for Uy, Initial residual = 0.00885782, Final residual = 0.000882926, No Iterations 9
GAMG:  Solving for p, Initial residual = 0.0188103, Final residual = 0.000187023, No Iterations 19
time step continuity errors : sum local = 2.70487e-05, global = 8.33389e-06, cumulative = 2.78897e-05
smoothSolver:  Solving for omega, Initial residual = 0.000345776, Final residual = 2.96803e-05, No Iterations 2
smoothSolver:  Solving for k, Initial residual = 0.000970235, Final residual = 8.96807e-05, No Iterations 2
ExecutionTime = 0.57 s  ClockTime = 1 s

forceCoeffs forceCoeffs_object write:
    Cm    = -0.243993
    Cd    = 0.989787
    Cl    = -0.0726516
    Cl(f) = -0.280319
    Cl(r) = 0.207667

Time = 19

smoothSolver:  Solving for Ux, Initial residual = 0.00299907, Final residual = 0.000260669, No Iterations 11
smoothSolver:  Solving for Uy, Initial residual = 0.00928503, Final residual = 0.000873732, No Iterations 9
GAMG:  Solving for p, Initial residual = 0.0170587, Final residual = 0.000159368, No Iterations 17
time step continuity errors : sum local = 2.60596e-05, global = 6.639e-06, cumulative = 3.45287e-05
smoothSolver:  Solving for omega, Initial residual = 0.000345215, Final residual = 3.04347e-05, No Iterations 2
smoothSolver:  Solving for k, Initial residual = 0.000942502, Final residual = 8.57053e-05, No Iterations 2
ExecutionTime = 0.59 s  ClockTime = 1 s

forceCoeffs forceCoeffs_object write:
    Cm    = -0.262892
    Cd    = 1.00933
    Cl    = -0.0709228
    Cl(f) = -0.298353
    Cl(r) = 0.22743

Time = 20

smoothSolver:  Solving for Ux, Initial residual = 0.00300052, Final residual = 0.000295116, No Iterations 10
smoothSolver:  Solving for Uy, Initial residual = 0.00993842, Final residual = 0.000890836, No Iterations 9
GAMG:  Solving for p, Initial residual = 0.0155991, Final residual = 0.000144681, No Iterations 18
time step continuity errors : sum local = 2.64189e-05, global = -1.56385e-05, cumulative = 1.88903e-05
smoothSolver:  Solving for omega, Initial residual = 0.000337139, Final residual = 3.04413e-05, No Iterations 2
smoothSolver:  Solving for k, Initial residual = 0.000927604, Final residual = 8.85189e-05, No Iterations 2
ExecutionTime = 0.62 s  ClockTime = 1 s

forceCoeffs forceCoeffs_object write:
    Cm    = -0.27983
    Cd    = 1.02264
    Cl    = -0.0686192
    Cl(f) = -0.31414
    Cl(r) = 0.24552

Time = 21

smoothSolver:  Solving for Ux, Initial residual = 0.00302674, Final residual = 0.000296676, No Iterations 10
smoothSolver:  Solving for Uy, Initial residual = 0.0106376, Final residual = 0.000926309, No Iterations 9
GAMG:  Solving for p, Initial residual = 0.0151735, Final residual = 0.000132351, No Iterations 18
time step continuity errors : sum local = 2.67915e-05, global = -1.62299e-05, cumulative = 2.66037e-06
smoothSolver:  Solving for omega, Initial residual = 0.000341708, Final residual = 2.97439e-05, No Iterations 2
smoothSolver:  Solving for k, Initial residual = 0.000908343, Final residual = 3.72402e-05, No Iterations 3
ExecutionTime = 0.65 s  ClockTime = 2 s

forceCoeffs forceCoeffs_object write:
    Cm    = -0.291437
    Cd    = 1.02233
    Cl    = -0.0653278
    Cl(f) = -0.324101
    Cl(r) = 0.258773

Time = 22

smoothSolver:  Solving for Ux, Initial residual = 0.00311257, Final residual = 0.000300005, No Iterations 10
smoothSolver:  Solving for Uy, Initial residual = 0.0116206, Final residual = 0.00116099, No Iterations 8
GAMG:  Solving for p, Initial residual = 0.0146814, Final residual = 0.000136354, No Iterations 16
time step continuity errors : sum local = 3.00742e-05, global = -1.94148e-05, cumulative = -1.67545e-05
smoothSolver:  Solving for omega, Initial residual = 0.000344592, Final residual = 3.11941e-05, No Iterations 2
smoothSolver:  Solving for k, Initial residual = 0.000882406, Final residual = 8.68952e-05, No Iterations 2
ExecutionTime = 0.67 s  ClockTime = 2 s

forceCoeffs forceCoeffs_object write:
    Cm    = -0.296544
    Cd    = 1.00544
    Cl    = -0.0608213
    Cl(f) = -0.326954
    Cl(r) = 0.266133

Time = 23

smoothSolver:  Solving for Ux, Initial residual = 0.0032306, Final residual = 0.000308318, No Iterations 10
smoothSolver:  Solving for Uy, Initial residual = 0.0128856, Final residual = 0.00110439, No Iterations 9
GAMG:  Solving for p, Initial residual = 0.0137869, Final residual = 0.000133756, No Iterations 16
time step continuity errors : sum local = 3.19446e-05, global = -2.05136e-05, cumulative = -3.7268e-05
smoothSolver:  Solving for omega, Initial residual = 0.000346377, Final residual = 2.91627e-05, No Iterations 2
smoothSolver:  Solving for k, Initial residual = 0.00091591, Final residual = 8.32643e-05, No Iterations 2
ExecutionTime = 0.7 s  ClockTime = 2 s

forceCoeffs forceCoeffs_object write:
    Cm    = -0.292846
    Cd    = 0.968483
    Cl    = -0.0547999
    Cl(f) = -0.320246
    Cl(r) = 0.265447

Time = 24

smoothSolver:  Solving for Ux, Initial residual = 0.00337191, Final residual = 0.00031881, No Iterations 10
smoothSolver:  Solving for Uy, Initial residual = 0.0149042, Final residual = 0.00129448, No Iterations 9
GAMG:  Solving for p, Initial residual = 0.0133652, Final residual = 0.000111207, No Iterations 15
time step continuity errors : sum local = 2.88803e-05, global = 9.43943e-06, cumulative = -2.78286e-05
smoothSolver:  Solving for omega, Initial residual = 0.000356915, Final residual = 3.11727e-05, No Iterations 2
smoothSolver:  Solving for k, Initial residual = 0.000965748, Final residual = 8.86099e-05, No Iterations 2
ExecutionTime = 0.72 s  ClockTime = 2 s

forceCoeffs forceCoeffs_object write:
    Cm    = -0.278971
    Cd    = 0.90782
    Cl    = -0.0466766
    Cl(f) = -0.302309
    Cl(r) = 0.255632

Time = 25

smoothSolver:  Solving for Ux, Initial residual = 0.00353618, Final residual = 0.000329797, No Iterations 10
smoothSolver:  Solving for Uy, Initial residual = 0.01839, Final residual = 0.00164375, No Iterations 9
GAMG:  Solving for p, Initial residual = 0.0131595, Final residual = 0.000120742, No Iterations 18
time step continuity errors : sum local = 3.38418e-05, global = 1.63093e-05, cumulative = -1.15193e-05
smoothSolver:  Solving for omega, Initial residual = 0.000355493, Final residual = 3.1147e-05, No Iterations 2
smoothSolver:  Solving for k, Initial residual = 0.000949779, Final residual = 8.58225e-05, No Iterations 2
ExecutionTime = 0.75 s  ClockTime = 2 s

forceCoeffs forceCoeffs_object write:
    Cm    = -0.253674
    Cd    = 0.825127
    Cl    = -0.0363437
    Cl(f) = -0.271846
    Cl(r) = 0.235502

Time = 26

smoothSolver:  Solving for Ux, Initial residual = 0.00366571, Final residual = 0.000331935, No Iterations 10
smoothSolver:  Solving for Uy, Initial residual = 0.0247334, Final residual = 0.00228036, No Iterations 9
GAMG:  Solving for p, Initial residual = 0.012595, Final residual = 0.000102846, No Iterations 20
time step continuity errors : sum local = 3.14635e-05, global = 1.33436e-05, cumulative = 1.82434e-06
smoothSolver:  Solving for omega, Initial residual = 0.00035639, Final residual = 3.13131e-05, No Iterations 2
smoothSolver:  Solving for k, Initial residual = 0.000938429, Final residual = 8.36146e-05, No Iterations 2
ExecutionTime = 0.78 s  ClockTime = 2 s

forceCoeffs forceCoeffs_object write:
    Cm    = -0.216094
    Cd    = 0.720253
    Cl    = -0.0233881
    Cl(f) = -0.227788
    Cl(r) = 0.2044

Time = 27

smoothSolver:  Solving for Ux, Initial residual = 0.00373296, Final residual = 0.000330046, No Iterations 10
smoothSolver:  Solving for Uy, Initial residual = 0.0376602, Final residual = 0.00359087, No Iterations 9
GAMG:  Solving for p, Initial residual = 0.0117546, Final residual = 0.000111247, No Iterations 19
time step continuity errors : sum local = 3.7297e-05, global = -1.51555e-05, cumulative = -1.33312e-05
smoothSolver:  Solving for omega, Initial residual = 0.000349621, Final residual = 3.12225e-05, No Iterations 2
smoothSolver:  Solving for k, Initial residual = 0.000908322, Final residual = 7.59423e-05, No Iterations 2
ExecutionTime = 0.81 s  ClockTime = 2 s

forceCoeffs forceCoeffs_object write:
    Cm    = -0.167278
    Cd    = 0.596429
    Cl    = -0.00823983
    Cl(f) = -0.171398
    Cl(r) = 0.163159

Time = 28

smoothSolver:  Solving for Ux, Initial residual = 0.00376955, Final residual = 0.000329714, No Iterations 10
smoothSolver:  Solving for Uy, Initial residual = 0.0648039, Final residual = 0.00562289, No Iterations 10
GAMG:  Solving for p, Initial residual = 0.0110296, Final residual = 0.000102756, No Iterations 18
time step continuity errors : sum local = 3.75171e-05, global = 1.37862e-05, cumulative = 4.55047e-07
smoothSolver:  Solving for omega, Initial residual = 0.000336473, Final residual = 3.03592e-05, No Iterations 2
smoothSolver:  Solving for k, Initial residual = 0.000896608, Final residual = 7.39852e-05, No Iterations 2
ExecutionTime = 0.83 s  ClockTime = 2 s

forceCoeffs forceCoeffs_object write:
    Cm    = -0.108939
    Cd    = 0.458329
    Cl    = 0.00828195
    Cl(f) = -0.104798
    Cl(r) = 0.11308

Time = 29

smoothSolver:  Solving for Ux, Initial residual = 0.00381747, Final residual = 0.000332402, No Iterations 10
smoothSolver:  Solving for Uy, Initial residual = 0.044558, Final residual = 0.00405837, No Iterations 10
GAMG:  Solving for p, Initial residual = 0.0102985, Final residual = 8.64351e-05, No Iterations 20
time step continuity errors : sum local = 3.37771e-05, global = 1.57163e-05, cumulative = 1.61714e-05
smoothSolver:  Solving for omega, Initial residual = 0.000315651, Final residual = 2.90327e-05, No Iterations 2
smoothSolver:  Solving for k, Initial residual = 0.000860917, Final residual = 6.90694e-05, No Iterations 2
ExecutionTime = 0.86 s  ClockTime = 2 s

forceCoeffs forceCoeffs_object write:
    Cm    = -0.0449768
    Cd    = 0.315562
    Cl    = 0.0244556
    Cl(f) = -0.032749
    Cl(r) = 0.0572046

Time = 30

smoothSolver:  Solving for Ux, Initial residual = 0.00397688, Final residual = 0.000339932, No Iterations 10
smoothSolver:  Solving for Uy, Initial residual = 0.0286414, Final residual = 0.00269355, No Iterations 10
GAMG:  Solving for p, Initial residual = 0.010325, Final residual = 0.00010187, No Iterations 21
time step continuity errors : sum local = 4.19373e-05, global = -2.02615e-05, cumulative = -4.09016e-06
smoothSolver:  Solving for omega, Initial residual = 0.000291794, Final residual = 2.67104e-05, No Iterations 2
smoothSolver:  Solving for k, Initial residual = 0.000825431, Final residual = 6.42151e-05, No Iterations 2
ExecutionTime = 0.9 s  ClockTime = 2 s

forceCoeffs forceCoeffs_object write:
    Cm    = 0.0183541
    Cd    = 0.182154
    Cl    = 0.0383097
    Cl(f) = 0.037509
    Cl(r) = 0.000800699

Time = 31

smoothSolver:  Solving for Ux, Initial residual = 0.00418616, Final residual = 0.000413979, No Iterations 9
smoothSolver:  Solving for Uy, Initial residual = 0.0219466, Final residual = 0.00204788, No Iterations 10
GAMG:  Solving for p, Initial residual = 0.0106368, Final residual = 9.10692e-05, No Iterations 21
time step continuity errors : sum local = 3.84013e-05, global = -1.82051e-05, cumulative = -2.22952e-05
smoothSolver:  Solving for omega, Initial residual = 0.000278957, Final residual = 2.36964e-05, No Iterations 2
smoothSolver:  Solving for k, Initial residual = 0.000815279, Final residual = 6.73828e-05, No Iterations 2
ExecutionTime = 0.93 s  ClockTime = 2 s

forceCoeffs forceCoeffs_object write:
    Cm    = 0.0732167
    Cd    = 0.0701972
    Cl    = 0.0481658
    Cl(f) = 0.0972995
    Cl(r) = -0.0491338

Time = 32

smoothSolver:  Solving for Ux, Initial residual = 0.00453241, Final residual = 0.000448235, No Iterations 9
smoothSolver:  Solving for Uy, Initial residual = 0.0186347, Final residual = 0.00172509, No Iterations 10
GAMG:  Solving for p, Initial residual = 0.0117404, Final residual = 0.000106548, No Iterations 18
time step continuity errors : sum local = 4.43813e-05, global = 2.26666e-05, cumulative = 3.71411e-07
smoothSolver:  Solving for omega, Initial residual = 0.00027663, Final residual = 2.28559e-05, No Iterations 2
smoothSolver:  Solving for k, Initial residual = 0.000811041, Final residual = 6.41873e-05, No Iterations 2
ExecutionTime = 0.96 s  ClockTime = 2 s

forceCoeffs forceCoeffs_object write:
    Cm    = 0.108424
    Cd    = -0.00207416
    Cl    = 0.0524498
    Cl(f) = 0.134649
    Cl(r) = -0.0821994

Time = 33

smoothSolver:  Solving for Ux, Initial residual = 0.00511607, Final residual = 0.000507396, No Iterations 9
smoothSolver:  Solving for Uy, Initial residual = 0.0172146, Final residual = 0.00154887, No Iterations 10
GAMG:  Solving for p, Initial residual = 0.0124157, Final residual = 0.00010718, No Iterations 16
time step continuity errors : sum local = 4.1766e-05, global = 1.70048e-05, cumulative = 1.73762e-05
smoothSolver:  Solving for omega, Initial residual = 0.000271206, Final residual = 2.18188e-05, No Iterations 2
smoothSolver:  Solving for k, Initial residual = 0.000826098, Final residual = 6.50582e-05, No Iterations 2
ExecutionTime = 0.98 s  ClockTime = 2 s

forceCoeffs forceCoeffs_object write:
    Cm    = 0.118746
    Cd    = -0.0280346
    Cl    = 0.0520895
    Cl(f) = 0.144791
    Cl(r) = -0.0927012

Time = 34

smoothSolver:  Solving for Ux, Initial residual = 0.00587666, Final residual = 0.000574066, No Iterations 9
smoothSolver:  Solving for Uy, Initial residual = 0.0169723, Final residual = 0.00147773, No Iterations 10
GAMG:  Solving for p, Initial residual = 0.0141404, Final residual = 0.000125286, No Iterations 15
time step continuity errors : sum local = 4.47742e-05, global = -2.01482e-05, cumulative = -2.77195e-06
smoothSolver:  Solving for omega, Initial residual = 0.000268897, Final residual = 2.36333e-05, No Iterations 2
smoothSolver:  Solving for k, Initial residual = 0.000855985, Final residual = 7.06304e-05, No Iterations 2
ExecutionTime = 1.01 s  ClockTime = 2 s

forceCoeffs forceCoeffs_object write:
    Cm    = 0.108896
    Cd    = -0.012953
    Cl    = 0.0472623
    Cl(f) = 0.132527
    Cl(r) = -0.0852644

Time = 35

smoothSolver:  Solving for Ux, Initial residual = 0.00696204, Final residual = 0.000644874, No Iterations 9
smoothSolver:  Solving for Uy, Initial residual = 0.0180622, Final residual = 0.0017588, No Iterations 9
GAMG:  Solving for p, Initial residual = 0.0157129, Final residual = 0.000147124, No Iterations 16
time step continuity errors : sum local = 4.71539e-05, global = 1.70479e-05, cumulative = 1.42759e-05
smoothSolver:  Solving for omega, Initial residual = 0.000276386, Final residual = 2.60176e-05, No Iterations 2
smoothSolver:  Solving for k, Initial residual = 0.000899687, Final residual = 8.0907e-05, No Iterations 2
ExecutionTime = 1.03 s  ClockTime = 2 s

forceCoeffs forceCoeffs_object write:
    Cm    = 0.0813979
    Cd    = 0.0436397
    Cl    = 0.038104
    Cl(f) = 0.10045
    Cl(r) = -0.0623459

Time = 36

smoothSolver:  Solving for Ux, Initial residual = 0.00824657, Final residual = 0.000723203, No Iterations 9
smoothSolver:  Solving for Uy, Initial residual = 0.0201278, Final residual = 0.00191032, No Iterations 9
GAMG:  Solving for p, Initial residual = 0.0169641, Final residual = 0.000160004, No Iterations 18
time step continuity errors : sum local = 4.63264e-05, global = 1.57201e-05, cumulative = 2.9996e-05
smoothSolver:  Solving for omega, Initial residual = 0.000279019, Final residual = 1.2359e-05, No Iterations 3
smoothSolver:  Solving for k, Initial residual = 0.00094284, Final residual = 9.2409e-05, No Iterations 2
ExecutionTime = 1.06 s  ClockTime = 2 s

forceCoeffs forceCoeffs_object write:
    Cm    = 0.0473585
    Cd    = 0.122023
    Cl    = 0.0258722
    Cl(f) = 0.0602946
    Cl(r) = -0.0344223

Time = 37

smoothSolver:  Solving for Ux, Initial residual = 0.0097027, Final residual = 0.000947164, No Iterations 8
smoothSolver:  Solving for Uy, Initial residual = 0.0251138, Final residual = 0.00219745, No Iterations 9
GAMG:  Solving for p, Initial residual = 0.0188841, Final residual = 0.000173921, No Iterations 19
time step continuity errors : sum local = 4.60021e-05, global = -1.73317e-05, cumulative = 1.26643e-05
smoothSolver:  Solving for omega, Initial residual = 0.000289754, Final residual = 1.29598e-05, No Iterations 3
smoothSolver:  Solving for k, Initial residual = 0.00102689, Final residual = 4.25824e-05, No Iterations 3
ExecutionTime = 1.09 s  ClockTime = 2 s

forceCoeffs forceCoeffs_object write:
    Cm    = 0.0134238
    Cd    = 0.212127
    Cl    = 0.0109866
    Cl(f) = 0.0189171
    Cl(r) = -0.00793054

Time = 38

smoothSolver:  Solving for Ux, Initial residual = 0.0111571, Final residual = 0.00104478, No Iterations 8
smoothSolver:  Solving for Uy, Initial residual = 0.0356032, Final residual = 0.00341596, No Iterations 8
GAMG:  Solving for p, Initial residual = 0.0213176, Final residual = 0.000211924, No Iterations 18
time step continuity errors : sum local = 5.02225e-05, global = 1.81313e-05, cumulative = 3.07957e-05
smoothSolver:  Solving for omega, Initial residual = 0.000296105, Final residual = 1.39926e-05, No Iterations 3
smoothSolver:  Solving for k, Initial residual = 0.00112966, Final residual = 4.68169e-05, No Iterations 3
ExecutionTime = 1.11 s  ClockTime = 2 s

forceCoeffs forceCoeffs_object write:
    Cm    = -0.013673
    Cd    = 0.288625
    Cl    = -0.00300922
    Cl(f) = -0.0151776
    Cl(r) = 0.0121684

Time = 39

smoothSolver:  Solving for Ux, Initial residual = 0.0124878, Final residual = 0.00113689, No Iterations 8
smoothSolver:  Solving for Uy, Initial residual = 0.0581148, Final residual = 0.00546306, No Iterations 8
GAMG:  Solving for p, Initial residual = 0.0263231, Final residual = 0.000238338, No Iterations 18
time step continuity errors : sum local = 4.83592e-05, global = 1.82769e-05, cumulative = 4.90726e-05
smoothSolver:  Solving for omega, Initial residual = 0.000299827, Final residual = 1.44479e-05, No Iterations 3
smoothSolver:  Solving for k, Initial residual = 0.00118178, Final residual = 4.79095e-05, No Iterations 3
ExecutionTime = 1.14 s  ClockTime = 2 s

forceCoeffs forceCoeffs_object write:
    Cm    = -0.0351161
    Cd    = 0.352512
    Cl    = -0.0159577
    Cl(f) = -0.043095
    Cl(r) = 0.0271373

Time = 40

smoothSolver:  Solving for Ux, Initial residual = 0.0137104, Final residual = 0.00123747, No Iterations 8
smoothSolver:  Solving for Uy, Initial residual = 0.117523, Final residual = 0.0104816, No Iterations 8
GAMG:  Solving for p, Initial residual = 0.0354661, Final residual = 0.000346337, No Iterations 17
time step continuity errors : sum local = 5.57252e-05, global = -2.46713e-05, cumulative = 2.44013e-05
smoothSolver:  Solving for omega, Initial residual = 0.00029389, Final residual = 1.46756e-05, No Iterations 3
smoothSolver:  Solving for k, Initial residual = 0.00125598, Final residual = 0.00012366, No Iterations 2
ExecutionTime = 1.17 s  ClockTime = 2 s

forceCoeffs forceCoeffs_object write:
    Cm    = -0.0536423
    Cd    = 0.406946
    Cl    = -0.0271139
    Cl(f) = -0.0671992
    Cl(r) = 0.0400854

Time = 41

smoothSolver:  Solving for Ux, Initial residual = 0.0145105, Final residual = 0.00130673, No Iterations 8
smoothSolver:  Solving for Uy, Initial residual = 0.0708176, Final residual = 0.00614379, No Iterations 8
GAMG:  Solving for p, Initial residual = 0.0438194, Final residual = 0.000410733, No Iterations 16
time step continuity errors : sum local = 4.85823e-05, global = 2.06382e-05, cumulative = 4.50395e-05
smoothSolver:  Solving for omega, Initial residual = 0.000287089, Final residual = 1.38806e-05, No Iterations 3
smoothSolver:  Solving for k, Initial residual = 0.00127007, Final residual = 0.000119591, No Iterations 2
ExecutionTime = 1.19 s  ClockTime = 2 s

forceCoeffs forceCoeffs_object write:
    Cm    = -0.066951
    Cd    = 0.441781
    Cl    = -0.0343353
    Cl(f) = -0.0841186
    Cl(r) = 0.0497833

Time = 42

smoothSolver:  Solving for Ux, Initial residual = 0.0142402, Final residual = 0.00131377, No Iterations 8
smoothSolver:  Solving for Uy, Initial residual = 0.0456888, Final residual = 0.00392208, No Iterations 8
GAMG:  Solving for p, Initial residual = 0.0573973, Final residual = 0.000531894, No Iterations 15
time step continuity errors : sum local = 5.02587e-05, global = -2.4467e-05, cumulative = 2.05726e-05
smoothSolver:  Solving for omega, Initial residual = 0.000280339, Final residual = 1.35644e-05, No Iterations 3
smoothSolver:  Solving for k, Initial residual = 0.00128001, Final residual = 0.000118983, No Iterations 2
ExecutionTime = 1.22 s  ClockTime = 2 s

forceCoeffs forceCoeffs_object write:
    Cm    = -0.0766413
    Cd    = 0.461662
    Cl    = -0.0378177
    Cl(f) = -0.0955502
    Cl(r) = 0.0577325

Time = 43

smoothSolver:  Solving for Ux, Initial residual = 0.0134648, Final residual = 0.00126044, No Iterations 8
smoothSolver:  Solving for Uy, Initial residual = 0.0344005, Final residual = 0.00297572, No Iterations 8
GAMG:  Solving for p, Initial residual = 0.0646608, Final residual = 0.00051821, No Iterations 17
time step continuity errors : sum local = 4.76736e-05, global = 2.32241e-05, cumulative = 4.37967e-05
smoothSolver:  Solving for omega, Initial residual = 0.000272173, Final residual = 1.30556e-05, No Iterations 3
smoothSolver:  Solving for k, Initial residual = 0.0012587, Final residual = 0.00010924, No Iterations 2
ExecutionTime = 1.24 s  ClockTime = 2 s

forceCoeffs forceCoeffs_object write:
    Cm    = -0.0875906
    Cd    = 0.477126
    Cl    = -0.0386024
    Cl(f) = -0.106892
    Cl(r) = 0.0682894

Time = 44

smoothSolver:  Solving for Ux, Initial residual = 0.0125761, Final residual = 0.00117785, No Iterations 8
smoothSolver:  Solving for Uy, Initial residual = 0.0283414, Final residual = 0.00249146, No Iterations 8
GAMG:  Solving for p, Initial residual = 0.0618714, Final residual = 0.000577724, No Iterations 18
time step continuity errors : sum local = 5.68996e-05, global = -2.80982e-05, cumulative = 1.56984e-05
smoothSolver:  Solving for omega, Initial residual = 0.000245933, Final residual = 1.13893e-05, No Iterations 3
smoothSolver:  Solving for k, Initial residual = 0.00123587, Final residual = 0.000104255, No Iterations 2
ExecutionTime = 1.27 s  ClockTime = 2 s

forceCoeffs forceCoeffs_object write:
    Cm    = -0.100245
    Cd    = 0.490049
    Cl    = -0.0383679
    Cl(f) = -0.119429
    Cl(r) = 0.0810612

Time = 45

smoothSolver:  Solving for Ux, Initial residual = 0.0115591, Final residual = 0.0010559, No Iterations 8
smoothSolver:  Solving for Uy, Initial residual = 0.0246132, Final residual = 0.00227057, No Iterations 8
GAMG:  Solving for p, Initial residual = 0.0572207, Final residual = 0.000551437, No Iterations 19
time step continuity errors : sum local = 5.84061e-05, global = 2.82502e-05, cumulative = 4.39486e-05
smoothSolver:  Solving for omega, Initial residual = 0.000231886, Final residual = 1.05138e-05, No Iterations 3
smoothSolver:  Solving for k, Initial residual = 0.00118655, Final residual = 9.58732e-05, No Iterations 2
ExecutionTime = 1.3 s  ClockTime = 2 s

forceCoeffs forceCoeffs_object write:
    Cm    = -0.108661
    Cd    = 0.491592
    Cl    = -0.0369944
    Cl(f) = -0.127158
    Cl(r) = 0.0901633

Time = 46

smoothSolver:  Solving for Ux, Initial residual = 0.0106333, Final residual = 0.000927085, No Iterations 8
smoothSolver:  Solving for Uy, Initial residual = 0.0221106, Final residual = 0.00215599, No Iterations 8
GAMG:  Solving for p, Initial residual = 0.0546344, Final residual = 0.000448057, No Iterations 19
time step continuity errors : sum local = 4.91085e-05, global = 2.44695e-05, cumulative = 6.84181e-05
smoothSolver:  Solving for omega, Initial residual = 0.000214048, Final residual = 9.38672e-06, No Iterations 3
smoothSolver:  Solving for k, Initial residual = 0.00109229, Final residual = 8.74875e-05, No Iterations 2
ExecutionTime = 1.33 s  ClockTime = 2 s

forceCoeffs forceCoeffs_object write:
    Cm    = -0.110367
    Cd    = 0.479304
    Cl    = -0.0341389
    Cl(f) = -0.127436
    Cl(r) = 0.0932971

Time = 47

smoothSolver:  Solving for Ux, Initial residual = 0.0098805, Final residual = 0.000983236, No Iterations 7
smoothSolver:  Solving for Uy, Initial residual = 0.0205882, Final residual = 0.00179987, No Iterations 9
GAMG:  Solving for p, Initial residual = 0.0473188, Final residual = 0.000442208, No Iterations 18
time step continuity errors : sum local = 5.18931e-05, global = -2.31965e-05, cumulative = 4.52216e-05
smoothSolver:  Solving for omega, Initial residual = 0.000204113, Final residual = 2.02654e-05, No Iterations 2
smoothSolver:  Solving for k, Initial residual = 0.00101458, Final residual = 8.03122e-05, No Iterations 2
ExecutionTime = 1.35 s  ClockTime = 2 s

forceCoeffs forceCoeffs_object write:
    Cm    = -0.103091
    Cd    = 0.449843
    Cl    = -0.0299295
    Cl(f) = -0.118056
    Cl(r) = 0.0881264

Time = 48

smoothSolver:  Solving for Ux, Initial residual = 0.00931789, Final residual = 0.000896962, No Iterations 7
smoothSolver:  Solving for Uy, Initial residual = 0.0199767, Final residual = 0.00178856, No Iterations 9
GAMG:  Solving for p, Initial residual = 0.0373358, Final residual = 0.000372247, No Iterations 18
time step continuity errors : sum local = 4.8183e-05, global = -2.18143e-05, cumulative = 2.34073e-05
smoothSolver:  Solving for omega, Initial residual = 0.000205264, Final residual = 2.05216e-05, No Iterations 2
smoothSolver:  Solving for k, Initial residual = 0.000964455, Final residual = 7.64461e-05, No Iterations 2
ExecutionTime = 1.38 s  ClockTime = 2 s

forceCoeffs forceCoeffs_object write:
    Cm    = -0.0853195
    Cd    = 0.402103
    Cl    = -0.0245097
    Cl(f) = -0.0975743
    Cl(r) = 0.0730646

Time = 49

smoothSolver:  Solving for Ux, Initial residual = 0.00877702, Final residual = 0.000813222, No Iterations 7
smoothSolver:  Solving for Uy, Initial residual = 0.0204292, Final residual = 0.00184399, No Iterations 9
GAMG:  Solving for p, Initial residual = 0.0293255, Final residual = 0.000262422, No Iterations 19
time step continuity errors : sum local = 3.91702e-05, global = 1.66688e-05, cumulative = 4.00761e-05
smoothSolver:  Solving for omega, Initial residual = 0.000202704, Final residual = 2.01667e-05, No Iterations 2
smoothSolver:  Solving for k, Initial residual = 0.000907979, Final residual = 7.28419e-05, No Iterations 2
ExecutionTime = 1.41 s  ClockTime = 2 s

forceCoeffs forceCoeffs_object write:
    Cm    = -0.0582528
    Cd    = 0.339767
    Cl    = -0.0181709
    Cl(f) = -0.0673382
    Cl(r) = 0.0491673

Time = 50

smoothSolver:  Solving for Ux, Initial residual = 0.00829275, Final residual = 0.00074087, No Iterations 7
smoothSolver:  Solving for Uy, Initial residual = 0.0224868, Final residual = 0.00204266, No Iterations 9
GAMG:  Solving for p, Initial residual = 0.0235794, Final residual = 0.0002003, No Iterations 19
time step continuity errors : sum local = 3.49296e-05, global = 1.40972e-05, cumulative = 5.41733e-05
smoothSolver:  Solving for omega, Initial residual = 0.000203382, Final residual = 1.9874e-05, No Iterations 2
smoothSolver:  Solving for k, Initial residual = 0.000872259, Final residual = 6.67141e-05, No Iterations 2
ExecutionTime = 1.47 s  ClockTime = 2 s

forceCoeffs forceCoeffs_object write:
    Cm    = -0.0237432
    Cd    = 0.266629
    Cl    = -0.0113488
    Cl(f) = -0.0294176
    Cl(r) = 0.0180688

yPlus yPlus write:
    writing object yPlus
    patch suction_side y+ : min = 6.30297, max = 45.1826, average = 23.9736
    patch pressure_side y+ : min = 4.87028, max = 44.0977, average = 30.9269
    patch trailing_edge y+ : min = 82.2679, max = 139.278, average = 110.773

Time = 51

smoothSolver:  Solving for Ux, Initial residual = 0.00789634, Final residual = 0.000693966, No Iterations 7
smoothSolver:  Solving for Uy, Initial residual = 0.0271601, Final residual = 0.00248876, No Iterations 9
GAMG:  Solving for p, Initial residual = 0.0193641, Final residual = 0.000184018, No Iterations 18
time step continuity errors : sum local = 3.6744e-05, global = -1.51025e-05, cumulative = 3.90708e-05
smoothSolver:  Solving for omega, Initial residual = 0.000198133, Final residual = 1.97418e-05, No Iterations 2
smoothSolver:  Solving for k, Initial residual = 0.000833015, Final residual = 6.2113e-05, No Iterations 2
ExecutionTime = 1.5 s  ClockTime = 2 s

forceCoeffs forceCoeffs_object write:
    Cm    = 0.0152146
    Cd    = 0.188511
    Cl    = -0.00462177
    Cl(f) = 0.0129037
    Cl(r) = -0.0175255

Time = 52

smoothSolver:  Solving for Ux, Initial residual = 0.0076473, Final residual = 0.000693406, No Iterations 7
smoothSolver:  Solving for Uy, Initial residual = 0.0367998, Final residual = 0.00344527, No Iterations 9
GAMG:  Solving for p, Initial residual = 0.0161639, Final residual = 0.000152547, No Iterations 18
time step continuity errors : sum local = 3.39158e-05, global = -1.53061e-05, cumulative = 2.37647e-05
smoothSolver:  Solving for omega, Initial residual = 0.000195406, Final residual = 1.91589e-05, No Iterations 2
smoothSolver:  Solving for k, Initial residual = 0.000808456, Final residual = 5.85015e-05, No Iterations 2
ExecutionTime = 1.52 s  ClockTime = 2 s

forceCoeffs forceCoeffs_object write:
    Cm    = 0.0553435
    Cd    = 0.111367
    Cl    = 0.00134453
    Cl(f) = 0.0560157
    Cl(r) = -0.0546712

Time = 53

smoothSolver:  Solving for Ux, Initial residual = 0.00753332, Final residual = 0.000723335, No Iterations 7
smoothSolver:  Solving for Uy, Initial residual = 0.0582782, Final residual = 0.00560034, No Iterations 9
GAMG:  Solving for p, Initial residual = 0.0146314, Final residual = 0.000123921, No Iterations 18
time step continuity errors : sum local = 2.97893e-05, global = -1.48929e-05, cumulative = 8.87176e-06
smoothSolver:  Solving for omega, Initial residual = 0.000188613, Final residual = 7.92433e-06, No Iterations 3
smoothSolver:  Solving for k, Initial residual = 0.000781822, Final residual = 5.62068e-05, No Iterations 2
ExecutionTime = 1.55 s  ClockTime = 2 s

forceCoeffs forceCoeffs_object write:
    Cm    = 0.0933814
    Cd    = 0.0412079
    Cl    = 0.00578698
    Cl(f) = 0.0962749
    Cl(r) = -0.0904879

Time = 54

smoothSolver:  Solving for Ux, Initial residual = 0.00744639, Final residual = 0.000627784, No Iterations 8
smoothSolver:  Solving for Uy, Initial residual = 0.0995599, Final residual = 0.00984337, No Iterations 9
GAMG:  Solving for p, Initial residual = 0.0135687, Final residual = 0.000129543, No Iterations 17
time step continuity errors : sum local = 3.24532e-05, global = -1.55511e-05, cumulative = -6.6793e-06
smoothSolver:  Solving for omega, Initial residual = 0.000181893, Final residual = 1.76457e-05, No Iterations 2
smoothSolver:  Solving for k, Initial residual = 0.000779311, Final residual = 5.41272e-05, No Iterations 2
ExecutionTime = 1.57 s  ClockTime = 2 s

forceCoeffs forceCoeffs_object write:
    Cm    = 0.124077
    Cd    = -0.0102569
    Cl    = 0.00744064
    Cl(f) = 0.127797
    Cl(r) = -0.120356

Time = 55

smoothSolver:  Solving for Ux, Initial residual = 0.00734705, Final residual = 0.00064172, No Iterations 8
smoothSolver:  Solving for Uy, Initial residual = 0.0717709, Final residual = 0.00623943, No Iterations 10
GAMG:  Solving for p, Initial residual = 0.0133751, Final residual = 0.000123506, No Iterations 17
time step continuity errors : sum local = 3.10302e-05, global = -1.30841e-05, cumulative = -1.97634e-05
smoothSolver:  Solving for omega, Initial residual = 0.000178984, Final residual = 1.65305e-05, No Iterations 2
smoothSolver:  Solving for k, Initial residual = 0.00076546, Final residual = 5.1348e-05, No Iterations 2
ExecutionTime = 1.6 s  ClockTime = 2 s

forceCoeffs forceCoeffs_object write:
    Cm    = 0.141123
    Cd    = -0.031555
    Cl    = 0.00535867
    Cl(f) = 0.143803
    Cl(r) = -0.138444

Time = 56

smoothSolver:  Solving for Ux, Initial residual = 0.00734815, Final residual = 0.000648726, No Iterations 8
smoothSolver:  Solving for Uy, Initial residual = 0.0473001, Final residual = 0.00409211, No Iterations 10
GAMG:  Solving for p, Initial residual = 0.0144019, Final residual = 0.000131627, No Iterations 17
time step continuity errors : sum local = 3.18539e-05, global = -1.30146e-05, cumulative = -3.2778e-05
smoothSolver:  Solving for omega, Initial residual = 0.000175682, Final residual = 1.59182e-05, No Iterations 2
smoothSolver:  Solving for k, Initial residual = 0.000758888, Final residual = 5.10661e-05, No Iterations 2
ExecutionTime = 1.63 s  ClockTime = 2 s

forceCoeffs forceCoeffs_object write:
    Cm    = 0.141155
    Cd    = -0.0177138
    Cl    = -0.000556862
    Cl(f) = 0.140876
    Cl(r) = -0.141433

Time = 57

smoothSolver:  Solving for Ux, Initial residual = 0.00762783, Final residual = 0.000651455, No Iterations 8
smoothSolver:  Solving for Uy, Initial residual = 0.0412857, Final residual = 0.00403051, No Iterations 9
GAMG:  Solving for p, Initial residual = 0.0149315, Final residual = 0.000134666, No Iterations 18
time step continuity errors : sum local = 2.9915e-05, global = 1.30458e-05, cumulative = -1.97322e-05
smoothSolver:  Solving for omega, Initial residual = 0.000175805, Final residual = 1.61842e-05, No Iterations 2
smoothSolver:  Solving for k, Initial residual = 0.000774619, Final residual = 5.21676e-05, No Iterations 2
ExecutionTime = 1.65 s  ClockTime = 3 s

forceCoeffs forceCoeffs_object write:
    Cm    = 0.12247
    Cd    = 0.0360381
    Cl    = -0.0105849
    Cl(f) = 0.117178
    Cl(r) = -0.127762

Time = 58

smoothSolver:  Solving for Ux, Initial residual = 0.00818688, Final residual = 0.000804649, No Iterations 7
smoothSolver:  Solving for Uy, Initial residual = 0.0438304, Final residual = 0.00417919, No Iterations 9
GAMG:  Solving for p, Initial residual = 0.0164628, Final residual = 0.00013918, No Iterations 19
time step continuity errors : sum local = 2.72562e-05, global = -1.12618e-05, cumulative = -3.09941e-05
smoothSolver:  Solving for omega, Initial residual = 0.00018046, Final residual = 1.76745e-05, No Iterations 2
smoothSolver:  Solving for k, Initial residual = 0.00080083, Final residual = 5.62428e-05, No Iterations 2
ExecutionTime = 1.68 s  ClockTime = 3 s

forceCoeffs forceCoeffs_object write:
    Cm    = 0.0950246
    Cd    = 0.11096
    Cl    = -0.0232909
    Cl(f) = 0.0833791
    Cl(r) = -0.10667

Time = 59

smoothSolver:  Solving for Ux, Initial residual = 0.00905131, Final residual = 0.000862263, No Iterations 7
smoothSolver:  Solving for Uy, Initial residual = 0.0539635, Final residual = 0.00512109, No Iterations 9
GAMG:  Solving for p, Initial residual = 0.0183569, Final residual = 0.000157066, No Iterations 19
time step continuity errors : sum local = 2.50012e-05, global = -9.1994e-06, cumulative = -4.01935e-05
smoothSolver:  Solving for omega, Initial residual = 0.000182388, Final residual = 8.16157e-06, No Iterations 3
smoothSolver:  Solving for k, Initial residual = 0.000817099, Final residual = 6.29154e-05, No Iterations 2
ExecutionTime = 1.71 s  ClockTime = 3 s

forceCoeffs forceCoeffs_object write:
    Cm    = 0.0697849
    Cd    = 0.182731
    Cl    = -0.0351891
    Cl(f) = 0.0521904
    Cl(r) = -0.0873795

Time = 60

smoothSolver:  Solving for Ux, Initial residual = 0.00988597, Final residual = 0.000926983, No Iterations 7
smoothSolver:  Solving for Uy, Initial residual = 0.0748294, Final residual = 0.00709019, No Iterations 9
GAMG:  Solving for p, Initial residual = 0.0204964, Final residual = 0.0001767, No Iterations 19
time step continuity errors : sum local = 2.24656e-05, global = -6.94759e-06, cumulative = -4.7141e-05
smoothSolver:  Solving for omega, Initial residual = 0.000180064, Final residual = 8.77868e-06, No Iterations 3
smoothSolver:  Solving for k, Initial residual = 0.000825914, Final residual = 7.33176e-05, No Iterations 2
ExecutionTime = 1.74 s  ClockTime = 3 s

forceCoeffs forceCoeffs_object write:
    Cm    = 0.0537112
    Cd    = 0.234226
    Cl    = -0.0444164
    Cl(f) = 0.031503
    Cl(r) = -0.0759194

Time = 61

smoothSolver:  Solving for Ux, Initial residual = 0.0103597, Final residual = 0.000965496, No Iterations 7
smoothSolver:  Solving for Uy, Initial residual = 0.128826, Final residual = 0.0121308, No Iterations 9
GAMG:  Solving for p, Initial residual = 0.0220543, Final residual = 0.000203438, No Iterations 18
time step continuity errors : sum local = 2.13843e-05, global = 4.99969e-06, cumulative = -4.21414e-05
smoothSolver:  Solving for omega, Initial residual = 0.000171211, Final residual = 8.88542e-06, No Iterations 3
smoothSolver:  Solving for k, Initial residual = 0.000822491, Final residual = 7.8141e-05, No Iterations 2
ExecutionTime = 1.76 s  ClockTime = 3 s

forceCoeffs forceCoeffs_object write:
    Cm    = 0.0428433
    Cd    = 0.274626
    Cl    = -0.0519134
    Cl(f) = 0.0168866
    Cl(r) = -0.0688

Time = 62

smoothSolver:  Solving for Ux, Initial residual = 0.0106718, Final residual = 0.000979884, No Iterations 7
smoothSolver:  Solving for Uy, Initial residual = 0.0899697, Final residual = 0.0085556, No Iterations 9
GAMG:  Solving for p, Initial residual = 0.0221894, Final residual = 0.000182021, No Iterations 17
time step continuity errors : sum local = 1.71598e-05, global = -5.22888e-06, cumulative = -4.73702e-05
smoothSolver:  Solving for omega, Initial residual = 0.000162177, Final residual = 8.73094e-06, No Iterations 3
smoothSolver:  Solving for k, Initial residual = 0.000795761, Final residual = 3.25784e-05, No Iterations 3
ExecutionTime = 1.79 s  ClockTime = 3 s

forceCoeffs forceCoeffs_object write:
    Cm    = 0.0362949
    Cd    = 0.306028
    Cl    = -0.0580744
    Cl(f) = 0.00725769
    Cl(r) = -0.0653321

Time = 63

smoothSolver:  Solving for Ux, Initial residual = 0.0106906, Final residual = 0.000966724, No Iterations 7
smoothSolver:  Solving for Uy, Initial residual = 0.0494925, Final residual = 0.0047682, No Iterations 9
GAMG:  Solving for p, Initial residual = 0.0229859, Final residual = 0.000214319, No Iterations 15
time step continuity errors : sum local = 1.87669e-05, global = -7.46991e-06, cumulative = -5.48401e-05
smoothSolver:  Solving for omega, Initial residual = 0.00014933, Final residual = 8.24996e-06, No Iterations 3
smoothSolver:  Solving for k, Initial residual = 0.000763482, Final residual = 3.25255e-05, No Iterations 3
ExecutionTime = 1.81 s  ClockTime = 3 s

forceCoeffs forceCoeffs_object write:
    Cm    = 0.0333974
    Cd    = 0.329658
    Cl    = -0.0631309
    Cl(f) = 0.00183193
    Cl(r) = -0.0649628

Time = 64

smoothSolver:  Solving for Ux, Initial residual = 0.0104543, Final residual = 0.0009241, No Iterations 7
smoothSolver:  Solving for Uy, Initial residual = 0.0323284, Final residual = 0.00315691, No Iterations 9
GAMG:  Solving for p, Initial residual = 0.0248923, Final residual = 0.000180579, No Iterations 17
time step continuity errors : sum local = 1.49442e-05, global = -4.21857e-06, cumulative = -5.90587e-05
smoothSolver:  Solving for omega, Initial residual = 0.000140447, Final residual = 8.04314e-06, No Iterations 3
smoothSolver:  Solving for k, Initial residual = 0.000742468, Final residual = 3.17594e-05, No Iterations 3
ExecutionTime = 1.84 s  ClockTime = 3 s

forceCoeffs forceCoeffs_object write:
    Cm    = 0.0330232
    Cd    = 0.348055
    Cl    = -0.067554
    Cl(f) = -0.000753817
    Cl(r) = -0.0668002

Time = 65

smoothSolver:  Solving for Ux, Initial residual = 0.0101532, Final residual = 0.000880615, No Iterations 7
smoothSolver:  Solving for Uy, Initial residual = 0.0240794, Final residual = 0.0020881, No Iterations 10
GAMG:  Solving for p, Initial residual = 0.0254471, Final residual = 0.000212622, No Iterations 17
time step continuity errors : sum local = 1.67077e-05, global = -3.31032e-06, cumulative = -6.2369e-05
smoothSolver:  Solving for omega, Initial residual = 0.000135551, Final residual = 7.95042e-06, No Iterations 3
smoothSolver:  Solving for k, Initial residual = 0.000725752, Final residual = 3.21966e-05, No Iterations 3
ExecutionTime = 1.87 s  ClockTime = 3 s

forceCoeffs forceCoeffs_object write:
    Cm    = 0.0346823
    Cd    = 0.362321
    Cl    = -0.0715745
    Cl(f) = -0.0011049
    Cl(r) = -0.0704696

Time = 66

smoothSolver:  Solving for Ux, Initial residual = 0.00991078, Final residual = 0.00085664, No Iterations 7
smoothSolver:  Solving for Uy, Initial residual = 0.0195893, Final residual = 0.0017165, No Iterations 10
GAMG:  Solving for p, Initial residual = 0.0273905, Final residual = 0.000219996, No Iterations 18
time step continuity errors : sum local = 1.64944e-05, global = -3.38057e-06, cumulative = -6.57496e-05
smoothSolver:  Solving for omega, Initial residual = 0.000130756, Final residual = 7.66924e-06, No Iterations 3
smoothSolver:  Solving for k, Initial residual = 0.000703007, Final residual = 3.12767e-05, No Iterations 3
ExecutionTime = 1.89 s  ClockTime = 3 s

forceCoeffs forceCoeffs_object write:
    Cm    = 0.0383592
    Cd    = 0.372271
    Cl    = -0.0752593
    Cl(f) = 0.00072956
    Cl(r) = -0.0759889

Time = 67

smoothSolver:  Solving for Ux, Initial residual = 0.00981478, Final residual = 0.000854898, No Iterations 7
smoothSolver:  Solving for Uy, Initial residual = 0.0169551, Final residual = 0.00147838, No Iterations 10
GAMG:  Solving for p, Initial residual = 0.0285676, Final residual = 0.00027701, No Iterations 19
time step continuity errors : sum local = 1.98745e-05, global = 7.21528e-06, cumulative = -5.85343e-05
smoothSolver:  Solving for omega, Initial residual = 0.000127356, Final residual = 7.29003e-06, No Iterations 3
smoothSolver:  Solving for k, Initial residual = 0.000672767, Final residual = 2.99497e-05, No Iterations 3
ExecutionTime = 1.92 s  ClockTime = 3 s

forceCoeffs forceCoeffs_object write:
    Cm    = 0.0428565
    Cd    = 0.380222
    Cl    = -0.0789032
    Cl(f) = 0.00340494
    Cl(r) = -0.0823081

Time = 68

smoothSolver:  Solving for Ux, Initial residual = 0.00982738, Final residual = 0.000897749, No Iterations 7
smoothSolver:  Solving for Uy, Initial residual = 0.0152489, Final residual = 0.00131584, No Iterations 10
GAMG:  Solving for p, Initial residual = 0.0261865, Final residual = 0.00025532, No Iterations 19
time step continuity errors : sum local = 1.7846e-05, global = 6.75946e-06, cumulative = -5.17749e-05
smoothSolver:  Solving for omega, Initial residual = 0.000123343, Final residual = 6.84722e-06, No Iterations 3
smoothSolver:  Solving for k, Initial residual = 0.000631695, Final residual = 2.82885e-05, No Iterations 3
ExecutionTime = 1.95 s  ClockTime = 3 s

forceCoeffs forceCoeffs_object write:
    Cm    = 0.0463334
    Cd    = 0.389783
    Cl    = -0.0829025
    Cl(f) = 0.00488215
    Cl(r) = -0.0877846

Time = 69

smoothSolver:  Solving for Ux, Initial residual = 0.0100274, Final residual = 0.000991155, No Iterations 7
smoothSolver:  Solving for Uy, Initial residual = 0.0141662, Final residual = 0.00140432, No Iterations 9
GAMG:  Solving for p, Initial residual = 0.0230507, Final residual = 0.000218063, No Iterations 19
time step continuity errors : sum local = 1.51753e-05, global = 5.75555e-06, cumulative = -4.60193e-05
smoothSolver:  Solving for omega, Initial residual = 0.000120781, Final residual = 6.571e-06, No Iterations 3
smoothSolver:  Solving for k, Initial residual = 0.000585216, Final residual = 2.68726e-05, No Iterations 3
ExecutionTime = 1.97 s  ClockTime = 3 s

forceCoeffs forceCoeffs_object write:
    Cm    = 0.0467741
    Cd    = 0.404653
    Cl    = -0.0876132
    Cl(f) = 0.00296753
    Cl(r) = -0.0905807

Time = 70

smoothSolver:  Solving for Ux, Initial residual = 0.0102727, Final residual = 0.000909815, No Iterations 8
smoothSolver:  Solving for Uy, Initial residual = 0.0134968, Final residual = 0.00132296, No Iterations 9
GAMG:  Solving for p, Initial residual = 0.0210251, Final residual = 0.000188543, No Iterations 20
time step continuity errors : sum local = 1.32133e-05, global = -3.96606e-06, cumulative = -4.99854e-05
smoothSolver:  Solving for omega, Initial residual = 0.000116267, Final residual = 6.26552e-06, No Iterations 3
smoothSolver:  Solving for k, Initial residual = 0.000545081, Final residual = 2.46723e-05, No Iterations 3
ExecutionTime = 2 s  ClockTime = 3 s

forceCoeffs forceCoeffs_object write:
    Cm    = 0.0428238
    Cd    = 0.428123
    Cl    = -0.0931685
    Cl(f) = -0.00376046
    Cl(r) = -0.089408

Time = 71

smoothSolver:  Solving for Ux, Initial residual = 0.010447, Final residual = 0.000964942, No Iterations 8
smoothSolver:  Solving for Uy, Initial residual = 0.0131287, Final residual = 0.00127896, No Iterations 9
GAMG:  Solving for p, Initial residual = 0.0198656, Final residual = 0.000193424, No Iterations 19
time step continuity errors : sum local = 1.36216e-05, global = 4.02014e-06, cumulative = -4.59652e-05
smoothSolver:  Solving for omega, Initial residual = 0.000112746, Final residual = 6.04273e-06, No Iterations 3
smoothSolver:  Solving for k, Initial residual = 0.000510986, Final residual = 2.35998e-05, No Iterations 3
ExecutionTime = 2.03 s  ClockTime = 3 s

forceCoeffs forceCoeffs_object write:
    Cm    = 0.0373787
    Cd    = 0.453938
    Cl    = -0.0987991
    Cl(f) = -0.0120208
    Cl(r) = -0.0867782

Time = 72

smoothSolver:  Solving for Ux, Initial residual = 0.0104872, Final residual = 0.00100096, No Iterations 8
smoothSolver:  Solving for Uy, Initial residual = 0.0127543, Final residual = 0.00124093, No Iterations 9
GAMG:  Solving for p, Initial residual = 0.0187605, Final residual = 0.000168302, No Iterations 18
time step continuity errors : sum local = 1.2048e-05, global = -3.26062e-06, cumulative = -4.92259e-05
smoothSolver:  Solving for omega, Initial residual = 0.000110978, Final residual = 6.01127e-06, No Iterations 3
smoothSolver:  Solving for k, Initial residual = 0.000488074, Final residual = 2.29114e-05, No Iterations 3
ExecutionTime = 2.06 s  ClockTime = 3 s

forceCoeffs forceCoeffs_object write:
    Cm    = 0.032101
    Cd    = 0.479074
    Cl    = -0.104269
    Cl(f) = -0.0200333
    Cl(r) = -0.0842354

Time = 73

smoothSolver:  Solving for Ux, Initial residual = 0.0102837, Final residual = 0.00101615, No Iterations 8
smoothSolver:  Solving for Uy, Initial residual = 0.0121418, Final residual = 0.00120733, No Iterations 9
GAMG:  Solving for p, Initial residual = 0.0173304, Final residual = 0.000160384, No Iterations 16
time step continuity errors : sum local = 1.17896e-05, global = -3.65013e-06, cumulative = -5.2876e-05
smoothSolver:  Solving for omega, Initial residual = 0.000109382, Final residual = 5.93707e-06, No Iterations 3
smoothSolver:  Solving for k, Initial residual = 0.000487479, Final residual = 2.30954e-05, No Iterations 3
ExecutionTime = 2.08 s  ClockTime = 3 s

forceCoeffs forceCoeffs_object write:
    Cm    = 0.0273909
    Cd    = 0.502798
    Cl    = -0.109621
    Cl(f) = -0.0274195
    Cl(r) = -0.0822013

Time = 74

smoothSolver:  Solving for Ux, Initial residual = 0.00981491, Final residual = 0.000859366, No Iterations 9
smoothSolver:  Solving for Uy, Initial residual = 0.0112849, Final residual = 0.00101856, No Iterations 10
GAMG:  Solving for p, Initial residual = 0.0157258, Final residual = 0.000141245, No Iterations 15
time step continuity errors : sum local = 1.06433e-05, global = -3.42761e-06, cumulative = -5.63036e-05
smoothSolver:  Solving for omega, Initial residual = 0.000107442, Final residual = 5.93875e-06, No Iterations 3
smoothSolver:  Solving for k, Initial residual = 0.000484519, Final residual = 2.33123e-05, No Iterations 3
ExecutionTime = 2.11 s  ClockTime = 3 s

forceCoeffs forceCoeffs_object write:
    Cm    = 0.0232236
    Cd    = 0.525863
    Cl    = -0.115005
    Cl(f) = -0.034279
    Cl(r) = -0.0807262

Time = 75

smoothSolver:  Solving for Ux, Initial residual = 0.00911094, Final residual = 0.000832508, No Iterations 9
smoothSolver:  Solving for Uy, Initial residual = 0.0102924, Final residual = 0.000956944, No Iterations 10
GAMG:  Solving for p, Initial residual = 0.0143317, Final residual = 0.000119952, No Iterations 17
time step continuity errors : sum local = 9.12493e-06, global = -2.94462e-06, cumulative = -5.92482e-05
smoothSolver:  Solving for omega, Initial residual = 0.000105371, Final residual = 5.91869e-06, No Iterations 3
smoothSolver:  Solving for k, Initial residual = 0.000484132, Final residual = 2.39063e-05, No Iterations 3
ExecutionTime = 2.13 s  ClockTime = 3 s

forceCoeffs forceCoeffs_object write:
    Cm    = 0.0200353
    Cd    = 0.5466
    Cl    = -0.120257
    Cl(f) = -0.0400932
    Cl(r) = -0.0801637

Time = 76

smoothSolver:  Solving for Ux, Initial residual = 0.00837423, Final residual = 0.000799355, No Iterations 9
smoothSolver:  Solving for Uy, Initial residual = 0.00932429, Final residual = 0.000895585, No Iterations 10
GAMG:  Solving for p, Initial residual = 0.0131609, Final residual = 0.000126862, No Iterations 17
time step continuity errors : sum local = 9.71515e-06, global = -3.00407e-06, cumulative = -6.22523e-05
smoothSolver:  Solving for omega, Initial residual = 0.000103395, Final residual = 5.87731e-06, No Iterations 3
smoothSolver:  Solving for k, Initial residual = 0.000479264, Final residual = 2.40557e-05, No Iterations 3
ExecutionTime = 2.16 s  ClockTime = 3 s

forceCoeffs forceCoeffs_object write:
    Cm    = 0.0177174
    Cd    = 0.56518
    Cl    = -0.125297
    Cl(f) = -0.044931
    Cl(r) = -0.0803658

Time = 77

smoothSolver:  Solving for Ux, Initial residual = 0.00765441, Final residual = 0.000670861, No Iterations 10
smoothSolver:  Solving for Uy, Initial residual = 0.00846007, Final residual = 0.000839154, No Iterations 10
GAMG:  Solving for p, Initial residual = 0.0118229, Final residual = 9.69088e-05, No Iterations 19
time step continuity errors : sum local = 7.4883e-06, global = -2.01442e-06, cumulative = -6.42667e-05
smoothSolver:  Solving for omega, Initial residual = 9.94068e-05, Final residual = 5.77643e-06, No Iterations 3
smoothSolver:  Solving for k, Initial residual = 0.000463469, Final residual = 2.41437e-05, No Iterations 3
ExecutionTime = 2.19 s  ClockTime = 3 s

forceCoeffs forceCoeffs_object write:
    Cm    = 0.0158826
    Cd    = 0.582595
    Cl    = -0.130176
    Cl(f) = -0.0492055
    Cl(r) = -0.0809708

Time = 78

smoothSolver:  Solving for Ux, Initial residual = 0.00700099, Final residual = 0.000651475, No Iterations 10
smoothSolver:  Solving for Uy, Initial residual = 0.00772843, Final residual = 0.000690817, No Iterations 11
GAMG:  Solving for p, Initial residual = 0.0106881, Final residual = 8.32645e-05, No Iterations 19
time step continuity errors : sum local = 6.50149e-06, global = -1.67998e-06, cumulative = -6.59467e-05
smoothSolver:  Solving for omega, Initial residual = 9.53122e-05, Final residual = 5.5818e-06, No Iterations 3
smoothSolver:  Solving for k, Initial residual = 0.000442745, Final residual = 2.34577e-05, No Iterations 3
ExecutionTime = 2.22 s  ClockTime = 3 s

forceCoeffs forceCoeffs_object write:
    Cm    = 0.014376
    Cd    = 0.598869
    Cl    = -0.134862
    Cl(f) = -0.0530551
    Cl(r) = -0.081807

Time = 79

smoothSolver:  Solving for Ux, Initial residual = 0.00642774, Final residual = 0.000638563, No Iterations 10
smoothSolver:  Solving for Uy, Initial residual = 0.00714979, Final residual = 0.000649999, No Iterations 11
GAMG:  Solving for p, Initial residual = 0.0094388, Final residual = 9.00416e-05, No Iterations 17
time step continuity errors : sum local = 7.17704e-06, global = -1.92044e-06, cumulative = -6.78671e-05
smoothSolver:  Solving for omega, Initial residual = 9.10658e-05, Final residual = 5.36216e-06, No Iterations 3
smoothSolver:  Solving for k, Initial residual = 0.000411009, Final residual = 2.26346e-05, No Iterations 3
ExecutionTime = 2.24 s  ClockTime = 3 s


SIMPLE solution converged in 79 iterations

forceCoeffs forceCoeffs_object write:
    Cm    = 0.0130979
    Cd    = 0.613969
    Cl    = -0.139357
    Cl(f) = -0.0565809
    Cl(r) = -0.0827766

yPlus yPlus write:
    writing object yPlus
    patch suction_side y+ : min = 7.30636, max = 43.2352, average = 26.7257
    patch pressure_side y+ : min = 4.42484, max = 41.3918, average = 28.2686
    patch trailing_edge y+ : min = 75.6622, max = 106.688, average = 91.1751

End

