/*---------------------------------------------------------------------------*\
  =========                 |
  \\      /  F ield         | OpenFOAM: The Open Source CFD Toolbox
   \\    /   O peration     | Website:  https://openfoam.org
    \\  /    A nd           | Version:  7
     \\/     M anipulation  |
\*---------------------------------------------------------------------------*/
Build  : 7-3bcbaf946ae9
Exec   : buoyantSimpleFoam
Date   : Jul 05 2022
Time   : 23:36:18
Host   : "Lubuntu"
PID    : 457262
I/O    : uncollated
Case   : /home/ensm_student/Documents/CFD/Rechnerubung/Week8/turbulent_channel_ht
nProcs : 1
sigFpe : Enabling floating point exception trapping (FOAM_SIGFPE).
fileModificationChecking : Monitoring run-time modified files using timeStampMaster (fileModificationSkew 10)
allowSystemOperations : Allowing user-supplied system call operations

// * * * * * * * * * * * * * * * * * * * * * * * * * * * * * * * * * * * * * //
Create time

Create mesh for time = 0


SIMPLE: Convergence criteria found
        p_rgh: tolerance 0.0001
        U: tolerance 0.0001
        h: tolerance 0.0001
        "(k|epsilon|omega)": tolerance 0.001

Reading thermophysical properties

Selecting thermodynamics package 
{
    type            heRhoThermo;
    mixture         pureMixture;
    transport       const;
    thermo          hConst;
    equationOfState rhoConst;
    specie          specie;
    energy          sensibleEnthalpy;
}

Reading field U

Reading/calculating face flux field phi

Creating turbulence model

Selecting turbulence model type RAS
Selecting RAS turbulence model kOmegaSST
Selecting patchDistMethod meshWave
RAS
{
    RASModel        kOmegaSST;
    turbulence      on;
    printCoeffs     on;
    alphaK1         0.85;
    alphaK2         1;
    alphaOmega1     0.5;
    alphaOmega2     0.856;
    gamma1          0.555556;
    gamma2          0.44;
    beta1           0.075;
    beta2           0.0828;
    betaStar        0.09;
    a1              0.31;
    b1              1;
    c1              10;
    F3              false;
}


Reading g

Reading hRef
Calculating field g.h

Reading field p_rgh

No MRF models present

Radiation model not active: radiationProperties not found
Selecting radiationModel none
No finite volume options present

Starting time loop

Time = 1

DILUPBiCGStab:  Solving for h, Initial residual = 1, Final residual = 4.09833e-07, No Iterations 1
GAMG:  Solving for p_rgh, Initial residual = 1, Final residual = 0.000333401, No Iterations 1
time step continuity errors : sum local = 0.00109846, global = -1.31053e-16, cumulative = -1.31053e-16
rho max/min : 1.225 1.225
DILUPBiCGStab:  Solving for omega, Initial residual = 0.181049, Final residual = 0.000286137, No Iterations 1
DILUPBiCGStab:  Solving for k, Initial residual = 1, Final residual = 0.0102333, No Iterations 1
ExecutionTime = 0 s  ClockTime = 0 s

Time = 2

DILUPBiCGStab:  Solving for h, Initial residual = 0.556441, Final residual = 4.46846e-05, No Iterations 1
GAMG:  Solving for p_rgh, Initial residual = 0.000876288, Final residual = 2.10843e-07, No Iterations 1
time step continuity errors : sum local = 0.000382978, global = -3.38813e-16, cumulative = -4.69866e-16
rho max/min : 1.225 1.225
DILUPBiCGStab:  Solving for omega, Initial residual = 0.123884, Final residual = 0.00071773, No Iterations 1
DILUPBiCGStab:  Solving for k, Initial residual = 0.404444, Final residual = 0.00285273, No Iterations 1
ExecutionTime = 0 s  ClockTime = 0 s

Time = 3

DILUPBiCGStab:  Solving for h, Initial residual = 0.0929275, Final residual = 1.80174e-05, No Iterations 1
GAMG:  Solving for p_rgh, Initial residual = 0.00118998, Final residual = 5.0721e-07, No Iterations 1
time step continuity errors : sum local = 0.000799708, global = 5.84792e-17, cumulative = -4.11387e-16
rho max/min : 1.225 1.225
DILUPBiCGStab:  Solving for omega, Initial residual = 0.0660336, Final residual = 0.000590541, No Iterations 1
DILUPBiCGStab:  Solving for k, Initial residual = 0.211275, Final residual = 0.00134239, No Iterations 1
ExecutionTime = 0.01 s  ClockTime = 0 s

Time = 4

DILUPBiCGStab:  Solving for h, Initial residual = 0.0513766, Final residual = 1.25936e-05, No Iterations 1
GAMG:  Solving for p_rgh, Initial residual = 0.00130972, Final residual = 1.34832e-07, No Iterations 1
time step continuity errors : sum local = 0.00012824, global = 9.16151e-17, cumulative = -3.19772e-16
rho max/min : 1.225 1.225
DILUPBiCGStab:  Solving for omega, Initial residual = 0.027291, Final residual = 0.000187256, No Iterations 1
DILUPBiCGStab:  Solving for k, Initial residual = 0.136637, Final residual = 0.000908686, No Iterations 1
ExecutionTime = 0.01 s  ClockTime = 0 s

Time = 5

DILUPBiCGStab:  Solving for h, Initial residual = 0.0339477, Final residual = 9.22546e-06, No Iterations 1
GAMG:  Solving for p_rgh, Initial residual = 0.00172776, Final residual = 3.07571e-07, No Iterations 1
time step continuity errors : sum local = 0.000132697, global = 3.72966e-16, cumulative = 5.31937e-17
rho max/min : 1.225 1.225
DILUPBiCGStab:  Solving for omega, Initial residual = 0.0313646, Final residual = 0.000161131, No Iterations 1
DILUPBiCGStab:  Solving for k, Initial residual = 0.0982161, Final residual = 0.000873867, No Iterations 1
ExecutionTime = 0.01 s  ClockTime = 0 s

Time = 6

DILUPBiCGStab:  Solving for h, Initial residual = 0.0246568, Final residual = 7.05518e-06, No Iterations 1
GAMG:  Solving for p_rgh, Initial residual = 0.00213944, Final residual = 8.40793e-07, No Iterations 1
time step continuity errors : sum local = 0.000130049, global = -1.02999e-16, cumulative = -4.98055e-17
rho max/min : 1.225 1.225
DILUPBiCGStab:  Solving for omega, Initial residual = 0.0276991, Final residual = 0.000187694, No Iterations 1
DILUPBiCGStab:  Solving for k, Initial residual = 0.07053, Final residual = 0.000582198, No Iterations 1
ExecutionTime = 0.01 s  ClockTime = 0 s

Time = 7

DILUPBiCGStab:  Solving for h, Initial residual = 0.0193303, Final residual = 5.64108e-06, No Iterations 1
GAMG:  Solving for p_rgh, Initial residual = 0.00240848, Final residual = 1.32408e-06, No Iterations 1
time step continuity errors : sum local = 6.911e-05, global = 3.79471e-18, cumulative = -4.60108e-17
rho max/min : 1.225 1.225
DILUPBiCGStab:  Solving for omega, Initial residual = 0.0236922, Final residual = 0.000202346, No Iterations 1
DILUPBiCGStab:  Solving for k, Initial residual = 0.0614735, Final residual = 0.00025351, No Iterations 1
ExecutionTime = 0.01 s  ClockTime = 0 s

Time = 8

DILUPBiCGStab:  Solving for h, Initial residual = 0.0159328, Final residual = 4.65682e-06, No Iterations 1
GAMG:  Solving for p_rgh, Initial residual = 0.00214988, Final residual = 2.45919e-08, No Iterations 1
time step continuity errors : sum local = 7.78199e-07, global = -1.46368e-17, cumulative = -6.06476e-17
rho max/min : 1.225 1.225
DILUPBiCGStab:  Solving for omega, Initial residual = 0.0198897, Final residual = 0.000194269, No Iterations 1
DILUPBiCGStab:  Solving for k, Initial residual = 0.0494535, Final residual = 0.000246109, No Iterations 1
ExecutionTime = 0.01 s  ClockTime = 0 s

Time = 9

DILUPBiCGStab:  Solving for h, Initial residual = 0.0136036, Final residual = 3.96703e-06, No Iterations 1
GAMG:  Solving for p_rgh, Initial residual = 0.00113895, Final residual = 5.11641e-07, No Iterations 1
time step continuity errors : sum local = 2.04205e-05, global = 5.96311e-18, cumulative = -5.46845e-17
rho max/min : 1.225 1.225
DILUPBiCGStab:  Solving for omega, Initial residual = 0.0170279, Final residual = 0.000175488, No Iterations 1
DILUPBiCGStab:  Solving for k, Initial residual = 0.0421019, Final residual = 0.000249164, No Iterations 1
ExecutionTime = 0.01 s  ClockTime = 0 s

Time = 10

DILUPBiCGStab:  Solving for h, Initial residual = 0.0119532, Final residual = 3.5121e-06, No Iterations 1
GAMG:  Solving for p_rgh, Initial residual = 0.000439824, Final residual = 2.68635e-07, No Iterations 1
time step continuity errors : sum local = 1.38086e-05, global = 4.22827e-17, cumulative = -1.24018e-17
rho max/min : 1.225 1.225
DILUPBiCGStab:  Solving for omega, Initial residual = 0.0149289, Final residual = 0.000153988, No Iterations 1
DILUPBiCGStab:  Solving for k, Initial residual = 0.0397311, Final residual = 0.000250031, No Iterations 1
ExecutionTime = 0.01 s  ClockTime = 0 s

Time = 11

DILUPBiCGStab:  Solving for h, Initial residual = 0.0107441, Final residual = 3.2192e-06, No Iterations 1
GAMG:  Solving for p_rgh, Initial residual = 0.000243093, Final residual = 5.40988e-08, No Iterations 1
time step continuity errors : sum local = 3.12374e-06, global = -1.37694e-16, cumulative = -1.50095e-16
rho max/min : 1.225 1.225
DILUPBiCGStab:  Solving for omega, Initial residual = 0.0134122, Final residual = 0.000138253, No Iterations 1
DILUPBiCGStab:  Solving for k, Initial residual = 0.0376191, Final residual = 0.000244031, No Iterations 1
ExecutionTime = 0.01 s  ClockTime = 0 s

Time = 12

DILUPBiCGStab:  Solving for h, Initial residual = 0.00986445, Final residual = 3.02294e-06, No Iterations 1
GAMG:  Solving for p_rgh, Initial residual = 0.000138371, Final residual = 3.10286e-08, No Iterations 1
time step continuity errors : sum local = 1.82547e-06, global = 4.8247e-17, cumulative = -1.01848e-16
rho max/min : 1.225 1.225
DILUPBiCGStab:  Solving for omega, Initial residual = 0.0120744, Final residual = 0.000125883, No Iterations 1
DILUPBiCGStab:  Solving for k, Initial residual = 0.0346069, Final residual = 0.000237039, No Iterations 1
ExecutionTime = 0.01 s  ClockTime = 0 s

Time = 13

DILUPBiCGStab:  Solving for h, Initial residual = 0.00946875, Final residual = 2.91302e-06, No Iterations 1
GAMG:  Solving for p_rgh, Initial residual = 9.37942e-05, Final residual = 3.44908e-08, No Iterations 1
time step continuity errors : sum local = 1.96222e-06, global = 4.77049e-17, cumulative = -5.41436e-17
rho max/min : 1.225 1.225
DILUPBiCGStab:  Solving for omega, Initial residual = 0.0109604, Final residual = 0.0001151, No Iterations 1
DILUPBiCGStab:  Solving for k, Initial residual = 0.0314483, Final residual = 0.000228928, No Iterations 1
ExecutionTime = 0.01 s  ClockTime = 0 s

Time = 14

DILUPBiCGStab:  Solving for h, Initial residual = 0.00943485, Final residual = 2.87997e-06, No Iterations 1
GAMG:  Solving for p_rgh, Initial residual = 7.45743e-05, Final residual = 1.24453e-08, No Iterations 1
time step continuity errors : sum local = 6.69753e-07, global = -2.08167e-16, cumulative = -2.6231e-16
rho max/min : 1.225 1.225
DILUPBiCGStab:  Solving for omega, Initial residual = 0.0100085, Final residual = 0.000106219, No Iterations 1
DILUPBiCGStab:  Solving for k, Initial residual = 0.0293279, Final residual = 0.000223883, No Iterations 1
ExecutionTime = 0.01 s  ClockTime = 0 s

Time = 15

DILUPBiCGStab:  Solving for h, Initial residual = 0.00930622, Final residual = 2.85487e-06, No Iterations 1
GAMG:  Solving for p_rgh, Initial residual = 5.62593e-05, Final residual = 5.51989e-09, No Iterations 1
time step continuity errors : sum local = 2.79704e-07, global = -1.22515e-16, cumulative = -3.84825e-16
rho max/min : 1.225 1.225
DILUPBiCGStab:  Solving for omega, Initial residual = 0.00911444, Final residual = 9.79829e-05, No Iterations 1
DILUPBiCGStab:  Solving for k, Initial residual = 0.0275359, Final residual = 0.000224986, No Iterations 1
ExecutionTime = 0.02 s  ClockTime = 0 s

Time = 16

DILUPBiCGStab:  Solving for h, Initial residual = 0.00910968, Final residual = 2.83782e-06, No Iterations 1
GAMG:  Solving for p_rgh, Initial residual = 4.47239e-05, Final residual = 9.22817e-09, No Iterations 1
time step continuity errors : sum local = 4.42039e-07, global = 3.78929e-16, cumulative = -5.89656e-18
rho max/min : 1.225 1.225
DILUPBiCGStab:  Solving for omega, Initial residual = 0.00831533, Final residual = 9.00517e-05, No Iterations 1
DILUPBiCGStab:  Solving for k, Initial residual = 0.025711, Final residual = 0.000225569, No Iterations 1
ExecutionTime = 0.02 s  ClockTime = 0 s

Time = 17

DILUPBiCGStab:  Solving for h, Initial residual = 0.00888347, Final residual = 2.83321e-06, No Iterations 1
GAMG:  Solving for p_rgh, Initial residual = 4.0654e-05, Final residual = 6.29108e-09, No Iterations 1
time step continuity errors : sum local = 2.86741e-07, global = 2.00577e-16, cumulative = 1.94681e-16
rho max/min : 1.225 1.225
DILUPBiCGStab:  Solving for omega, Initial residual = 0.0076092, Final residual = 8.31563e-05, No Iterations 1
DILUPBiCGStab:  Solving for k, Initial residual = 0.0237068, Final residual = 0.000223329, No Iterations 1
ExecutionTime = 0.02 s  ClockTime = 0 s

Time = 18

DILUPBiCGStab:  Solving for h, Initial residual = 0.00863346, Final residual = 2.83588e-06, No Iterations 1
GAMG:  Solving for p_rgh, Initial residual = 3.97466e-05, Final residual = 3.36445e-09, No Iterations 1
time step continuity errors : sum local = 1.46705e-07, global = -2.32561e-16, cumulative = -3.78805e-17
rho max/min : 1.225 1.225
DILUPBiCGStab:  Solving for omega, Initial residual = 0.00696352, Final residual = 7.71652e-05, No Iterations 1
DILUPBiCGStab:  Solving for k, Initial residual = 0.0230347, Final residual = 0.000224609, No Iterations 1
ExecutionTime = 0.02 s  ClockTime = 0 s

Time = 19

DILUPBiCGStab:  Solving for h, Initial residual = 0.00835178, Final residual = 2.8369e-06, No Iterations 1
GAMG:  Solving for p_rgh, Initial residual = 3.97189e-05, Final residual = 3.57495e-09, No Iterations 1
time step continuity errors : sum local = 1.49732e-07, global = -6.93889e-17, cumulative = -1.07269e-16
rho max/min : 1.225 1.225
DILUPBiCGStab:  Solving for omega, Initial residual = 0.006397, Final residual = 7.20169e-05, No Iterations 1
DILUPBiCGStab:  Solving for k, Initial residual = 0.0229487, Final residual = 0.000229187, No Iterations 1
ExecutionTime = 0.02 s  ClockTime = 0 s

Time = 20

DILUPBiCGStab:  Solving for h, Initial residual = 0.00805218, Final residual = 2.83551e-06, No Iterations 1
GAMG:  Solving for p_rgh, Initial residual = 4.06844e-05, Final residual = 4.08394e-09, No Iterations 1
time step continuity errors : sum local = 1.64755e-07, global = -1.65883e-16, cumulative = -2.73152e-16
rho max/min : 1.225 1.225
DILUPBiCGStab:  Solving for omega, Initial residual = 0.00589988, Final residual = 6.7492e-05, No Iterations 1
DILUPBiCGStab:  Solving for k, Initial residual = 0.0229474, Final residual = 0.000235354, No Iterations 1
ExecutionTime = 0.02 s  ClockTime = 0 s

Time = 21

DILUPBiCGStab:  Solving for h, Initial residual = 0.00775687, Final residual = 2.83642e-06, No Iterations 1
GAMG:  Solving for p_rgh, Initial residual = 4.25416e-05, Final residual = 3.55636e-09, No Iterations 1
time step continuity errors : sum local = 1.3842e-07, global = 3.63208e-17, cumulative = -2.36832e-16
rho max/min : 1.225 1.225
DILUPBiCGStab:  Solving for omega, Initial residual = 0.00550866, Final residual = 6.39258e-05, No Iterations 1
DILUPBiCGStab:  Solving for k, Initial residual = 0.0235176, Final residual = 0.00024783, No Iterations 1
ExecutionTime = 0.02 s  ClockTime = 0 s

Time = 22

DILUPBiCGStab:  Solving for h, Initial residual = 0.00748221, Final residual = 2.84271e-06, No Iterations 1
GAMG:  Solving for p_rgh, Initial residual = 4.48531e-05, Final residual = 2.27733e-09, No Iterations 1
time step continuity errors : sum local = 8.55896e-08, global = 7.53521e-17, cumulative = -1.6148e-16
rho max/min : 1.225 1.225
DILUPBiCGStab:  Solving for omega, Initial residual = 0.00518595, Final residual = 6.09054e-05, No Iterations 1
DILUPBiCGStab:  Solving for k, Initial residual = 0.0249492, Final residual = 0.000260144, No Iterations 1
ExecutionTime = 0.02 s  ClockTime = 0 s

Time = 23

DILUPBiCGStab:  Solving for h, Initial residual = 0.00722778, Final residual = 2.85286e-06, No Iterations 1
GAMG:  Solving for p_rgh, Initial residual = 4.78105e-05, Final residual = 1.46509e-09, No Iterations 1
time step continuity errors : sum local = 5.3185e-08, global = 2.82435e-16, cumulative = 1.20955e-16
rho max/min : 1.225 1.225
DILUPBiCGStab:  Solving for omega, Initial residual = 0.00490632, Final residual = 5.82946e-05, No Iterations 1
DILUPBiCGStab:  Solving for k, Initial residual = 0.0268731, Final residual = 0.000273826, No Iterations 1
ExecutionTime = 0.02 s  ClockTime = 0 s

Time = 24

DILUPBiCGStab:  Solving for h, Initial residual = 0.00699334, Final residual = 2.86592e-06, No Iterations 1
GAMG:  Solving for p_rgh, Initial residual = 4.95253e-05, Final residual = 1.80394e-09, No Iterations 1
time step continuity errors : sum local = 6.32769e-08, global = -3.49655e-16, cumulative = -2.287e-16
rho max/min : 1.225 1.225
DILUPBiCGStab:  Solving for omega, Initial residual = 0.00465931, Final residual = 5.6001e-05, No Iterations 1
DILUPBiCGStab:  Solving for k, Initial residual = 0.0290377, Final residual = 0.000289555, No Iterations 1
ExecutionTime = 0.02 s  ClockTime = 0 s

Time = 25

DILUPBiCGStab:  Solving for h, Initial residual = 0.00677959, Final residual = 2.88176e-06, No Iterations 1
GAMG:  Solving for p_rgh, Initial residual = 5.13338e-05, Final residual = 2.0661e-09, No Iterations 1
time step continuity errors : sum local = 7.00347e-08, global = -8.99888e-17, cumulative = -3.18689e-16
rho max/min : 1.225 1.225
DILUPBiCGStab:  Solving for omega, Initial residual = 0.00443809, Final residual = 5.39185e-05, No Iterations 1
DILUPBiCGStab:  Solving for k, Initial residual = 0.0315271, Final residual = 0.000309, No Iterations 1
ExecutionTime = 0.02 s  ClockTime = 0 s

Time = 26

DILUPBiCGStab:  Solving for h, Initial residual = 0.00659238, Final residual = 2.90288e-06, No Iterations 1
GAMG:  Solving for p_rgh, Initial residual = 5.36303e-05, Final residual = 9.37178e-10, No Iterations 1
time step continuity errors : sum local = 3.06709e-08, global = 2.6563e-17, cumulative = -2.92126e-16
rho max/min : 1.225 1.225
DILUPBiCGStab:  Solving for omega, Initial residual = 0.00424117, Final residual = 5.19045e-05, No Iterations 1
DILUPBiCGStab:  Solving for k, Initial residual = 0.0341469, Final residual = 0.000328942, No Iterations 1
ExecutionTime = 0.02 s  ClockTime = 0 s

Time = 27

DILUPBiCGStab:  Solving for h, Initial residual = 0.00642669, Final residual = 2.92724e-06, No Iterations 1
GAMG:  Solving for p_rgh, Initial residual = 5.62868e-05, Final residual = 1.0454e-09, No Iterations 1
time step continuity errors : sum local = 3.29851e-08, global = 1.56667e-16, cumulative = -1.35459e-16
rho max/min : 1.225 1.225
DILUPBiCGStab:  Solving for omega, Initial residual = 0.00408496, Final residual = 5.04844e-05, No Iterations 1
DILUPBiCGStab:  Solving for k, Initial residual = 0.0368324, Final residual = 0.00035226, No Iterations 1
ExecutionTime = 0.02 s  ClockTime = 0 s

Time = 28

DILUPBiCGStab:  Solving for h, Initial residual = 0.0062815, Final residual = 2.95457e-06, No Iterations 1
GAMG:  Solving for p_rgh, Initial residual = 5.84856e-05, Final residual = 1.01167e-09, No Iterations 1
time step continuity errors : sum local = 3.08033e-08, global = 1.01915e-16, cumulative = -3.35437e-17
rho max/min : 1.225 1.225
DILUPBiCGStab:  Solving for omega, Initial residual = 0.00397089, Final residual = 4.92736e-05, No Iterations 1
DILUPBiCGStab:  Solving for k, Initial residual = 0.0394587, Final residual = 0.000375972, No Iterations 1
ExecutionTime = 0.03 s  ClockTime = 0 s

Time = 29

DILUPBiCGStab:  Solving for h, Initial residual = 0.00615971, Final residual = 2.98643e-06, No Iterations 1
GAMG:  Solving for p_rgh, Initial residual = 5.9593e-05, Final residual = 1.40258e-09, No Iterations 1
time step continuity errors : sum local = 4.154e-08, global = -1.5992e-16, cumulative = -1.93464e-16
rho max/min : 1.225 1.225
DILUPBiCGStab:  Solving for omega, Initial residual = 0.00386709, Final residual = 4.80659e-05, No Iterations 1
DILUPBiCGStab:  Solving for k, Initial residual = 0.0421099, Final residual = 0.000402127, No Iterations 1
ExecutionTime = 0.03 s  ClockTime = 0 s

Time = 30

DILUPBiCGStab:  Solving for h, Initial residual = 0.00605813, Final residual = 3.02176e-06, No Iterations 1
GAMG:  Solving for p_rgh, Initial residual = 6.19445e-05, Final residual = 6.0656e-10, No Iterations 1
time step continuity errors : sum local = 1.72921e-08, global = -4.06576e-17, cumulative = -2.34121e-16
rho max/min : 1.225 1.225
DILUPBiCGStab:  Solving for omega, Initial residual = 0.00375475, Final residual = 4.68611e-05, No Iterations 1
DILUPBiCGStab:  Solving for k, Initial residual = 0.044757, Final residual = 0.000428565, No Iterations 1
ExecutionTime = 0.03 s  ClockTime = 0 s

Time = 31

DILUPBiCGStab:  Solving for h, Initial residual = 0.00596975, Final residual = 3.05558e-06, No Iterations 1
GAMG:  Solving for p_rgh, Initial residual = 6.48877e-05, Final residual = 7.56764e-11, No Iterations 1
time step continuity errors : sum local = 1.72658e-09, global = -8.61941e-17, cumulative = -3.20315e-16
rho max/min : 1.225 1.225
DILUPBiCGStab:  Solving for omega, Initial residual = 0.00363535, Final residual = 4.56779e-05, No Iterations 1
DILUPBiCGStab:  Solving for k, Initial residual = 0.0471749, Final residual = 0.000454153, No Iterations 1
ExecutionTime = 0.03 s  ClockTime = 0 s

Time = 32

DILUPBiCGStab:  Solving for h, Initial residual = 0.00588722, Final residual = 3.08949e-06, No Iterations 1
GAMG:  Solving for p_rgh, Initial residual = 6.76864e-05, Final residual = 1.2015e-09, No Iterations 1
time step continuity errors : sum local = 3.16289e-08, global = -8.0231e-17, cumulative = -4.00546e-16
rho max/min : 1.225 1.225
DILUPBiCGStab:  Solving for omega, Initial residual = 0.00353195, Final residual = 4.45346e-05, No Iterations 1
DILUPBiCGStab:  Solving for k, Initial residual = 0.0495195, Final residual = 0.000479847, No Iterations 1
ExecutionTime = 0.03 s  ClockTime = 0 s

Time = 33

DILUPBiCGStab:  Solving for h, Initial residual = 0.00580926, Final residual = 3.12307e-06, No Iterations 1
GAMG:  Solving for p_rgh, Initial residual = 7.0201e-05, Final residual = 1.69268e-09, No Iterations 1
time step continuity errors : sum local = 4.27624e-08, global = -3.79471e-18, cumulative = -4.04341e-16
rho max/min : 1.225 1.225
DILUPBiCGStab:  Solving for omega, Initial residual = 0.00343775, Final residual = 4.34455e-05, No Iterations 1
DILUPBiCGStab:  Solving for k, Initial residual = 0.0518556, Final residual = 0.000506182, No Iterations 1
ExecutionTime = 0.03 s  ClockTime = 0 s

Time = 34

DILUPBiCGStab:  Solving for h, Initial residual = 0.0057371, Final residual = 3.15696e-06, No Iterations 1
GAMG:  Solving for p_rgh, Initial residual = 7.2335e-05, Final residual = 1.68965e-09, No Iterations 1
time step continuity errors : sum local = 4.09291e-08, global = -9.81203e-17, cumulative = -5.02461e-16
rho max/min : 1.225 1.225
DILUPBiCGStab:  Solving for omega, Initial residual = 0.0033419, Final residual = 4.2251e-05, No Iterations 1
DILUPBiCGStab:  Solving for k, Initial residual = 0.0542272, Final residual = 0.000533423, No Iterations 1
ExecutionTime = 0.03 s  ClockTime = 0 s

Time = 35

DILUPBiCGStab:  Solving for h, Initial residual = 0.00566955, Final residual = 3.19113e-06, No Iterations 1
GAMG:  Solving for p_rgh, Initial residual = 7.42978e-05, Final residual = 1.55983e-09, No Iterations 1
time step continuity errors : sum local = 3.61847e-08, global = 1.56667e-16, cumulative = -3.45794e-16
rho max/min : 1.225 1.225
DILUPBiCGStab:  Solving for omega, Initial residual = 0.0032509, Final residual = 4.10199e-05, No Iterations 1
DILUPBiCGStab:  Solving for k, Initial residual = 0.0566824, Final residual = 0.00056186, No Iterations 1
ExecutionTime = 0.03 s  ClockTime = 0 s

Time = 36

DILUPBiCGStab:  Solving for h, Initial residual = 0.00560507, Final residual = 3.22521e-06, No Iterations 1
GAMG:  Solving for p_rgh, Initial residual = 7.64925e-05, Final residual = 1.30534e-09, No Iterations 1
time step continuity errors : sum local = 2.88871e-08, global = 1.4962e-16, cumulative = -1.96174e-16
rho max/min : 1.225 1.225
DILUPBiCGStab:  Solving for omega, Initial residual = 0.00316606, Final residual = 3.97478e-05, No Iterations 1
DILUPBiCGStab:  Solving for k, Initial residual = 0.059313, Final residual = 0.000592201, No Iterations 1
ExecutionTime = 0.03 s  ClockTime = 0 s

Time = 37

DILUPBiCGStab:  Solving for h, Initial residual = 0.00555243, Final residual = 3.26336e-06, No Iterations 1
GAMG:  Solving for p_rgh, Initial residual = 7.88868e-05, Final residual = 1.14286e-09, No Iterations 1
time step continuity errors : sum local = 2.40363e-08, global = 1.94072e-16, cumulative = -2.10185e-18
rho max/min : 1.225 1.225
DILUPBiCGStab:  Solving for omega, Initial residual = 0.00512491, Final residual = 3.15568e-05, No Iterations 1
DILUPBiCGStab:  Solving for k, Initial residual = 0.0859373, Final residual = 0.000570822, No Iterations 1
ExecutionTime = 0.03 s  ClockTime = 0 s

Time = 38

DILUPBiCGStab:  Solving for h, Initial residual = 0.00581732, Final residual = 2.97093e-06, No Iterations 1
GAMG:  Solving for p_rgh, Initial residual = 0.000112651, Final residual = 6.10805e-09, No Iterations 1
time step continuity errors : sum local = 1.59081e-07, global = 1.9082e-16, cumulative = 1.88718e-16
rho max/min : 1.225 1.225
DILUPBiCGStab:  Solving for omega, Initial residual = 0.00932069, Final residual = 3.64328e-05, No Iterations 1
DILUPBiCGStab:  Solving for k, Initial residual = 0.0875727, Final residual = 0.000553966, No Iterations 1
ExecutionTime = 0.03 s  ClockTime = 0 s

Time = 39

DILUPBiCGStab:  Solving for h, Initial residual = 0.0057697, Final residual = 3.39066e-06, No Iterations 1
GAMG:  Solving for p_rgh, Initial residual = 0.000106671, Final residual = 2.05746e-09, No Iterations 1
time step continuity errors : sum local = 4.74694e-08, global = -2.60208e-17, cumulative = 1.62697e-16
rho max/min : 1.225 1.225
DILUPBiCGStab:  Solving for omega, Initial residual = 0.00866745, Final residual = 3.33235e-05, No Iterations 1
DILUPBiCGStab:  Solving for k, Initial residual = 0.0596005, Final residual = 0.000608333, No Iterations 1
ExecutionTime = 0.03 s  ClockTime = 0 s

Time = 40

DILUPBiCGStab:  Solving for h, Initial residual = 0.00525781, Final residual = 3.18663e-06, No Iterations 1
GAMG:  Solving for p_rgh, Initial residual = 8.58338e-05, Final residual = 7.06414e-09, No Iterations 1
time step continuity errors : sum local = 1.56572e-07, global = -3.28513e-16, cumulative = -1.65816e-16
rho max/min : 1.225 1.225
DILUPBiCGStab:  Solving for omega, Initial residual = 0.00363359, Final residual = 3.5046e-05, No Iterations 1
DILUPBiCGStab:  Solving for k, Initial residual = 0.0617521, Final residual = 0.000635451, No Iterations 1
ExecutionTime = 0.03 s  ClockTime = 0 s

Time = 41

DILUPBiCGStab:  Solving for h, Initial residual = 0.00514739, Final residual = 3.26256e-06, No Iterations 1
GAMG:  Solving for p_rgh, Initial residual = 7.98943e-05, Final residual = 1.63518e-09, No Iterations 1
time step continuity errors : sum local = 3.41199e-08, global = 3.18213e-16, cumulative = 1.52397e-16
rho max/min : 1.225 1.225
DILUPBiCGStab:  Solving for omega, Initial residual = 0.0030047, Final residual = 3.48099e-05, No Iterations 1
DILUPBiCGStab:  Solving for k, Initial residual = 0.0645422, Final residual = 0.000667022, No Iterations 1
ExecutionTime = 0.04 s  ClockTime = 0 s

Time = 42

DILUPBiCGStab:  Solving for h, Initial residual = 0.00506539, Final residual = 3.325e-06, No Iterations 1
GAMG:  Solving for p_rgh, Initial residual = 8.01269e-05, Final residual = 1.98661e-09, No Iterations 1
time step continuity errors : sum local = 3.93293e-08, global = 1.6263e-16, cumulative = 3.15027e-16
rho max/min : 1.225 1.225
DILUPBiCGStab:  Solving for omega, Initial residual = 0.00289482, Final residual = 3.3319e-05, No Iterations 1
DILUPBiCGStab:  Solving for k, Initial residual = 0.0680757, Final residual = 0.000702469, No Iterations 1
ExecutionTime = 0.04 s  ClockTime = 0 s

Time = 43

DILUPBiCGStab:  Solving for h, Initial residual = 0.00500345, Final residual = 3.37938e-06, No Iterations 1
GAMG:  Solving for p_rgh, Initial residual = 8.31777e-05, Final residual = 2.77215e-09, No Iterations 1
time step continuity errors : sum local = 5.19543e-08, global = 1.56125e-16, cumulative = 4.71152e-16
rho max/min : 1.225 1.225
DILUPBiCGStab:  Solving for omega, Initial residual = 0.00278271, Final residual = 3.18877e-05, No Iterations 1
DILUPBiCGStab:  Solving for k, Initial residual = 0.0723259, Final residual = 0.000742354, No Iterations 1
ExecutionTime = 0.04 s  ClockTime = 0 s

Time = 44

DILUPBiCGStab:  Solving for h, Initial residual = 0.00501422, Final residual = 3.46112e-06, No Iterations 1
GAMG:  Solving for p_rgh, Initial residual = 8.45141e-05, Final residual = 1.76889e-09, No Iterations 1
time step continuity errors : sum local = 3.13047e-08, global = 4.66207e-17, cumulative = 5.17773e-16
rho max/min : 1.225 1.225
DILUPBiCGStab:  Solving for omega, Initial residual = 0.00270215, Final residual = 3.0422e-05, No Iterations 1
DILUPBiCGStab:  Solving for k, Initial residual = 0.0761965, Final residual = 0.000774519, No Iterations 1
ExecutionTime = 0.04 s  ClockTime = 0 s

Time = 45

DILUPBiCGStab:  Solving for h, Initial residual = 0.00510101, Final residual = 3.54368e-06, No Iterations 1
GAMG:  Solving for p_rgh, Initial residual = 8.68598e-05, Final residual = 1.6665e-09, No Iterations 1
time step continuity errors : sum local = 2.77443e-08, global = -1.31188e-16, cumulative = 3.86585e-16
rho max/min : 1.225 1.225
DILUPBiCGStab:  Solving for omega, Initial residual = 0.00479226, Final residual = 2.50502e-05, No Iterations 1
DILUPBiCGStab:  Solving for k, Initial residual = 0.114545, Final residual = 0.000702466, No Iterations 1
ExecutionTime = 0.04 s  ClockTime = 0 s

Time = 46

DILUPBiCGStab:  Solving for h, Initial residual = 0.00517271, Final residual = 3.08032e-06, No Iterations 1
GAMG:  Solving for p_rgh, Initial residual = 0.000146607, Final residual = 5.20109e-09, No Iterations 1
time step continuity errors : sum local = 1.07798e-07, global = -9.43256e-17, cumulative = 2.92259e-16
rho max/min : 1.225 1.225
DILUPBiCGStab:  Solving for omega, Initial residual = 0.0085344, Final residual = 3.05199e-05, No Iterations 1
DILUPBiCGStab:  Solving for k, Initial residual = 0.112308, Final residual = 0.000682336, No Iterations 1
ExecutionTime = 0.04 s  ClockTime = 0 s

Time = 47

DILUPBiCGStab:  Solving for h, Initial residual = 0.00494391, Final residual = 3.46184e-06, No Iterations 1
GAMG:  Solving for p_rgh, Initial residual = 0.000121106, Final residual = 8.24256e-09, No Iterations 1
time step continuity errors : sum local = 1.52741e-07, global = -7.96889e-17, cumulative = 2.1257e-16
rho max/min : 1.225 1.225
DILUPBiCGStab:  Solving for omega, Initial residual = 0.00730535, Final residual = 2.6146e-05, No Iterations 1
DILUPBiCGStab:  Solving for k, Initial residual = 0.0745515, Final residual = 0.000779528, No Iterations 1
ExecutionTime = 0.04 s  ClockTime = 0 s

Time = 48

DILUPBiCGStab:  Solving for h, Initial residual = 0.00472051, Final residual = 3.36742e-06, No Iterations 1
GAMG:  Solving for p_rgh, Initial residual = 0.000103261, Final residual = 6.88823e-09, No Iterations 1
time step continuity errors : sum local = 1.19043e-07, global = -2.22804e-16, cumulative = -1.02334e-17
rho max/min : 1.225 1.225
DILUPBiCGStab:  Solving for omega, Initial residual = 0.00298609, Final residual = 2.6537e-05, No Iterations 1
DILUPBiCGStab:  Solving for k, Initial residual = 0.0776881, Final residual = 0.000818708, No Iterations 1
ExecutionTime = 0.04 s  ClockTime = 0 s

Time = 49

DILUPBiCGStab:  Solving for h, Initial residual = 0.00462741, Final residual = 3.45544e-06, No Iterations 1
GAMG:  Solving for p_rgh, Initial residual = 8.02496e-05, Final residual = 5.40033e-09, No Iterations 1
time step continuity errors : sum local = 8.89374e-08, global = 1.16552e-16, cumulative = 1.06318e-16
rho max/min : 1.225 1.225
DILUPBiCGStab:  Solving for omega, Initial residual = 0.00247744, Final residual = 2.59481e-05, No Iterations 1
DILUPBiCGStab:  Solving for k, Initial residual = 0.0833022, Final residual = 0.000860242, No Iterations 1
ExecutionTime = 0.04 s  ClockTime = 0 s

Time = 50

DILUPBiCGStab:  Solving for h, Initial residual = 0.00456807, Final residual = 3.53288e-06, No Iterations 1
GAMG:  Solving for p_rgh, Initial residual = 8.3267e-05, Final residual = 1.1332e-09, No Iterations 1
time step continuity errors : sum local = 1.62437e-08, global = -7.58942e-17, cumulative = 3.04242e-17
rho max/min : 1.225 1.225
DILUPBiCGStab:  Solving for omega, Initial residual = 0.00242074, Final residual = 2.44839e-05, No Iterations 1
DILUPBiCGStab:  Solving for k, Initial residual = 0.0872416, Final residual = 0.000874732, No Iterations 1
ExecutionTime = 0.04 s  ClockTime = 0 s

Time = 51

DILUPBiCGStab:  Solving for h, Initial residual = 0.00466959, Final residual = 3.67878e-06, No Iterations 1
GAMG:  Solving for p_rgh, Initial residual = 8.89316e-05, Final residual = 3.75272e-09, No Iterations 1
time step continuity errors : sum local = 5.44525e-08, global = -1.30104e-17, cumulative = 1.74138e-17
rho max/min : 1.225 1.225
DILUPBiCGStab:  Solving for omega, Initial residual = 0.00234891, Final residual = 2.30869e-05, No Iterations 1
DILUPBiCGStab:  Solving for k, Initial residual = 0.0886415, Final residual = 0.000856732, No Iterations 1
ExecutionTime = 0.04 s  ClockTime = 0 s

Time = 52

DILUPBiCGStab:  Solving for h, Initial residual = 0.00489512, Final residual = 3.79731e-06, No Iterations 1
GAMG:  Solving for p_rgh, Initial residual = 9.83068e-05, Final residual = 7.42593e-09, No Iterations 1
time step continuity errors : sum local = 1.00637e-07, global = -6.34258e-17, cumulative = -4.6012e-17
rho max/min : 1.225 1.225
DILUPBiCGStab:  Solving for omega, Initial residual = 0.00476711, Final residual = 2.02471e-05, No Iterations 1
DILUPBiCGStab:  Solving for k, Initial residual = 0.146455, Final residual = 0.000779647, No Iterations 1
ExecutionTime = 0.04 s  ClockTime = 0 s

Time = 53

DILUPBiCGStab:  Solving for h, Initial residual = 0.00487128, Final residual = 3.17881e-06, No Iterations 1
GAMG:  Solving for p_rgh, Initial residual = 0.000187434, Final residual = 2.97332e-09, No Iterations 1
time step continuity errors : sum local = 5.13168e-08, global = -4.55365e-17, cumulative = -9.15485e-17
rho max/min : 1.225 1.225
DILUPBiCGStab:  Solving for omega, Initial residual = 0.0086602, Final residual = 2.55503e-05, No Iterations 1
DILUPBiCGStab:  Solving for k, Initial residual = 0.149619, Final residual = 0.00080864, No Iterations 1
ExecutionTime = 0.04 s  ClockTime = 0 s

Time = 54

DILUPBiCGStab:  Solving for h, Initial residual = 0.00455602, Final residual = 3.58775e-06, No Iterations 1
GAMG:  Solving for p_rgh, Initial residual = 0.000146248, Final residual = 9.30384e-09, No Iterations 1
time step continuity errors : sum local = 1.43778e-07, global = 3.14419e-17, cumulative = -6.01066e-17
rho max/min : 1.225 1.225
DILUPBiCGStab:  Solving for omega, Initial residual = 0.0071348, Final residual = 2.07014e-05, No Iterations 1
DILUPBiCGStab:  Solving for k, Initial residual = 0.0942822, Final residual = 0.00096416, No Iterations 1
ExecutionTime = 0.05 s  ClockTime = 0 s

Time = 55

DILUPBiCGStab:  Solving for h, Initial residual = 0.00435925, Final residual = 3.52067e-06, No Iterations 1
GAMG:  Solving for p_rgh, Initial residual = 0.000107452, Final residual = 2.7171e-08, No Iterations 1
time step continuity errors : sum local = 3.96572e-07, global = -2.80266e-16, cumulative = -3.40373e-16
rho max/min : 1.225 1.225
DILUPBiCGStab:  Solving for omega, Initial residual = 0.0026219, Final residual = 2.03981e-05, No Iterations 1
DILUPBiCGStab:  Solving for k, Initial residual = 0.0973838, Final residual = 0.000989292, No Iterations 1
ExecutionTime = 0.05 s  ClockTime = 0 s

Time = 56

DILUPBiCGStab:  Solving for h, Initial residual = 0.00427858, Final residual = 3.62798e-06, No Iterations 1
GAMG:  Solving for p_rgh, Initial residual = 9.44969e-05, Final residual = 9.24624e-09, No Iterations 1
time step continuity errors : sum local = 1.26273e-07, global = -1.01915e-16, cumulative = -4.42288e-16
rho max/min : 1.225 1.225
DILUPBiCGStab:  Solving for omega, Initial residual = 0.00209697, Final residual = 1.96187e-05, No Iterations 1
DILUPBiCGStab:  Solving for k, Initial residual = 0.100359, Final residual = 0.000970174, No Iterations 1
ExecutionTime = 0.05 s  ClockTime = 0 s

Time = 57

DILUPBiCGStab:  Solving for h, Initial residual = 0.00433734, Final residual = 3.79299e-06, No Iterations 1
GAMG:  Solving for p_rgh, Initial residual = 0.000101095, Final residual = 8.15488e-09, No Iterations 1
time step continuity errors : sum local = 1.03495e-07, global = -1.51788e-17, cumulative = -4.57467e-16
rho max/min : 1.225 1.225
DILUPBiCGStab:  Solving for omega, Initial residual = 0.00208482, Final residual = 1.83148e-05, No Iterations 1
DILUPBiCGStab:  Solving for k, Initial residual = 0.100824, Final residual = 0.000918251, No Iterations 1
ExecutionTime = 0.05 s  ClockTime = 0 s

Time = 58

DILUPBiCGStab:  Solving for h, Initial residual = 0.00458711, Final residual = 3.96434e-06, No Iterations 1
GAMG:  Solving for p_rgh, Initial residual = 0.000115919, Final residual = 1.70301e-08, No Iterations 1
time step continuity errors : sum local = 1.99078e-07, global = 1.32273e-16, cumulative = -3.25194e-16
rho max/min : 1.225 1.225
DILUPBiCGStab:  Solving for omega, Initial residual = 0.00429992, Final residual = 1.70694e-05, No Iterations 1
DILUPBiCGStab:  Solving for k, Initial residual = 0.175141, Final residual = 0.000859624, No Iterations 1
ExecutionTime = 0.05 s  ClockTime = 0 s

Time = 59

DILUPBiCGStab:  Solving for h, Initial residual = 0.00455372, Final residual = 3.29084e-06, No Iterations 1
GAMG:  Solving for p_rgh, Initial residual = 0.000220558, Final residual = 4.21799e-09, No Iterations 1
time step continuity errors : sum local = 6.18456e-08, global = -9.6494e-17, cumulative = -4.21688e-16
rho max/min : 1.225 1.225
DILUPBiCGStab:  Solving for omega, Initial residual = 0.00630722, Final residual = 2.30857e-05, No Iterations 1
DILUPBiCGStab:  Solving for k, Initial residual = 0.107846, Final residual = 0.000988052, No Iterations 1
ExecutionTime = 0.05 s  ClockTime = 0 s

Time = 60

DILUPBiCGStab:  Solving for h, Initial residual = 0.00453142, Final residual = 3.45828e-06, No Iterations 1
GAMG:  Solving for p_rgh, Initial residual = 0.000173457, Final residual = 4.28156e-09, No Iterations 1
time step continuity errors : sum local = 5.67399e-08, global = -2.60209e-17, cumulative = -4.47709e-16
rho max/min : 1.225 1.225
DILUPBiCGStab:  Solving for omega, Initial residual = 0.00782567, Final residual = 1.39083e-05, No Iterations 1
DILUPBiCGStab:  Solving for k, Initial residual = 0.215843, Final residual = 0.000919977, No Iterations 1
ExecutionTime = 0.05 s  ClockTime = 0 s

Time = 61

DILUPBiCGStab:  Solving for h, Initial residual = 0.00427407, Final residual = 3.80618e-06, No Iterations 1
GAMG:  Solving for p_rgh, Initial residual = 0.000295577, Final residual = 3.75691e-09, No Iterations 1
time step continuity errors : sum local = 4.69067e-08, global = 5.63785e-17, cumulative = -3.9133e-16
rho max/min : 1.225 1.225
DILUPBiCGStab:  Solving for omega, Initial residual = 0.0112283, Final residual = 1.50881e-05, No Iterations 1
DILUPBiCGStab:  Solving for k, Initial residual = 0.119625, Final residual = 0.00109693, No Iterations 1
ExecutionTime = 0.05 s  ClockTime = 0 s

Time = 62

DILUPBiCGStab:  Solving for h, Initial residual = 0.00405235, Final residual = 3.77807e-06, No Iterations 1
GAMG:  Solving for p_rgh, Initial residual = 0.000176855, Final residual = 4.37639e-08, No Iterations 1
time step continuity errors : sum local = 5.10341e-07, global = 2.69966e-16, cumulative = -1.21364e-16
rho max/min : 1.225 1.225
DILUPBiCGStab:  Solving for omega, Initial residual = 0.00257127, Final residual = 1.49768e-05, No Iterations 1
DILUPBiCGStab:  Solving for k, Initial residual = 0.113344, Final residual = 0.00102239, No Iterations 1
ExecutionTime = 0.05 s  ClockTime = 0 s

Time = 63

DILUPBiCGStab:  Solving for h, Initial residual = 0.00415792, Final residual = 4.01521e-06, No Iterations 1
GAMG:  Solving for p_rgh, Initial residual = 0.000137785, Final residual = 4.93451e-09, No Iterations 1
time step continuity errors : sum local = 5.32389e-08, global = 2.61293e-16, cumulative = 1.39929e-16
rho max/min : 1.225 1.225
DILUPBiCGStab:  Solving for omega, Initial residual = 0.00179842, Final residual = 1.47477e-05, No Iterations 1
DILUPBiCGStab:  Solving for k, Initial residual = 0.112121, Final residual = 0.000938, No Iterations 1
ExecutionTime = 0.05 s  ClockTime = 0 s

Time = 64

DILUPBiCGStab:  Solving for h, Initial residual = 0.00431445, Final residual = 4.21452e-06, No Iterations 1
GAMG:  Solving for p_rgh, Initial residual = 0.000154137, Final residual = 1.54762e-08, No Iterations 1
time step continuity errors : sum local = 1.52506e-07, global = -5.09575e-17, cumulative = 8.89711e-17
rho max/min : 1.225 1.225
DILUPBiCGStab:  Solving for omega, Initial residual = 0.00598811, Final residual = 1.67354e-05, No Iterations 1
DILUPBiCGStab:  Solving for k, Initial residual = 0.220142, Final residual = 0.00092548, No Iterations 1
ExecutionTime = 0.05 s  ClockTime = 0 s

Time = 65

DILUPBiCGStab:  Solving for h, Initial residual = 0.00424382, Final residual = 3.37331e-06, No Iterations 1
GAMG:  Solving for p_rgh, Initial residual = 0.000311432, Final residual = 1.38204e-08, No Iterations 1
time step continuity errors : sum local = 1.79006e-07, global = -1.84314e-17, cumulative = 7.05397e-17
rho max/min : 1.225 1.225
DILUPBiCGStab:  Solving for omega, Initial residual = 0.00836411, Final residual = 2.19497e-05, No Iterations 1
DILUPBiCGStab:  Solving for k, Initial residual = 0.125899, Final residual = 0.00107194, No Iterations 1
ExecutionTime = 0.05 s  ClockTime = 0 s

Time = 66

DILUPBiCGStab:  Solving for h, Initial residual = 0.00428431, Final residual = 3.61219e-06, No Iterations 1
GAMG:  Solving for p_rgh, Initial residual = 0.000241742, Final residual = 9.93427e-09, No Iterations 1
time step continuity errors : sum local = 1.13823e-07, global = 5.63785e-17, cumulative = 1.26918e-16
rho max/min : 1.225 1.225
DILUPBiCGStab:  Solving for omega, Initial residual = 0.00811017, Final residual = 1.1855e-05, No Iterations 1
DILUPBiCGStab:  Solving for k, Initial residual = 0.256043, Final residual = 0.00100271, No Iterations 1
ExecutionTime = 0.06 s  ClockTime = 0 s

Time = 67

DILUPBiCGStab:  Solving for h, Initial residual = 0.00401125, Final residual = 3.95965e-06, No Iterations 1
GAMG:  Solving for p_rgh, Initial residual = 0.000359121, Final residual = 2.17829e-08, No Iterations 1
time step continuity errors : sum local = 2.32742e-07, global = 2.04914e-16, cumulative = 3.31832e-16
rho max/min : 1.225 1.225
DILUPBiCGStab:  Solving for omega, Initial residual = 0.0111987, Final residual = 1.22859e-05, No Iterations 1
DILUPBiCGStab:  Solving for k, Initial residual = 0.137546, Final residual = 0.00117468, No Iterations 1
ExecutionTime = 0.06 s  ClockTime = 0 s

Time = 68

DILUPBiCGStab:  Solving for h, Initial residual = 0.00383049, Final residual = 3.97698e-06, No Iterations 1
GAMG:  Solving for p_rgh, Initial residual = 0.000233751, Final residual = 5.57808e-08, No Iterations 1
time step continuity errors : sum local = 5.51487e-07, global = -5.09575e-17, cumulative = 2.80875e-16
rho max/min : 1.225 1.225
DILUPBiCGStab:  Solving for omega, Initial residual = 0.00245965, Final residual = 1.21825e-05, No Iterations 1
DILUPBiCGStab:  Solving for k, Initial residual = 0.125763, Final residual = 0.00103965, No Iterations 1
ExecutionTime = 0.06 s  ClockTime = 0 s

Time = 69

DILUPBiCGStab:  Solving for h, Initial residual = 0.00400328, Final residual = 4.28018e-06, No Iterations 1
GAMG:  Solving for p_rgh, Initial residual = 0.000160571, Final residual = 7.7265e-09, No Iterations 1
time step continuity errors : sum local = 7.00435e-08, global = -2.76472e-16, cumulative = 4.40339e-18
rho max/min : 1.225 1.225
DILUPBiCGStab:  Solving for omega, Initial residual = 0.00156028, Final residual = 1.23112e-05, No Iterations 1
DILUPBiCGStab:  Solving for k, Initial residual = 0.122129, Final residual = 0.000919163, No Iterations 1
ExecutionTime = 0.06 s  ClockTime = 0 s

Time = 70

DILUPBiCGStab:  Solving for h, Initial residual = 0.00420874, Final residual = 4.48541e-06, No Iterations 1
GAMG:  Solving for p_rgh, Initial residual = 0.000151727, Final residual = 3.61001e-08, No Iterations 1
time step continuity errors : sum local = 2.969e-07, global = 1.65883e-16, cumulative = 1.70286e-16
rho max/min : 1.225 1.225
DILUPBiCGStab:  Solving for omega, Initial residual = 0.00957498, Final residual = 1.86953e-05, No Iterations 1
DILUPBiCGStab:  Solving for k, Initial residual = 0.266161, Final residual = 0.000922943, No Iterations 1
ExecutionTime = 0.06 s  ClockTime = 0 s

Time = 71

DILUPBiCGStab:  Solving for h, Initial residual = 0.00406647, Final residual = 3.43043e-06, No Iterations 1
GAMG:  Solving for p_rgh, Initial residual = 0.000310937, Final residual = 1.72882e-08, No Iterations 1
time step continuity errors : sum local = 1.98419e-07, global = 2.49366e-17, cumulative = 1.95223e-16
rho max/min : 1.225 1.225
DILUPBiCGStab:  Solving for omega, Initial residual = 0.0128922, Final residual = 2.22761e-05, No Iterations 1
DILUPBiCGStab:  Solving for k, Initial residual = 0.139924, Final residual = 0.00107632, No Iterations 1
ExecutionTime = 0.06 s  ClockTime = 0 s

Time = 72

DILUPBiCGStab:  Solving for h, Initial residual = 0.00411074, Final residual = 3.76132e-06, No Iterations 1
GAMG:  Solving for p_rgh, Initial residual = 0.000233885, Final residual = 3.31894e-09, No Iterations 1
time step continuity errors : sum local = 3.29556e-08, global = 2.27682e-16, cumulative = 4.22905e-16
rho max/min : 1.225 1.225
DILUPBiCGStab:  Solving for omega, Initial residual = 0.00882784, Final residual = 1.01551e-05, No Iterations 1
DILUPBiCGStab:  Solving for k, Initial residual = 0.294263, Final residual = 0.000992473, No Iterations 1
ExecutionTime = 0.06 s  ClockTime = 0 s

Time = 73

DILUPBiCGStab:  Solving for h, Initial residual = 0.00380186, Final residual = 4.14147e-06, No Iterations 1
GAMG:  Solving for p_rgh, Initial residual = 0.000382488, Final residual = 2.70252e-08, No Iterations 1
time step continuity errors : sum local = 2.50078e-07, global = 1.00831e-16, cumulative = 5.23736e-16
rho max/min : 1.225 1.225
DILUPBiCGStab:  Solving for omega, Initial residual = 0.0119857, Final residual = 9.89284e-06, No Iterations 1
DILUPBiCGStab:  Solving for k, Initial residual = 0.152328, Final residual = 0.00117895, No Iterations 1
ExecutionTime = 0.06 s  ClockTime = 0 s

Time = 74

DILUPBiCGStab:  Solving for h, Initial residual = 0.00367848, Final residual = 4.20914e-06, No Iterations 1
GAMG:  Solving for p_rgh, Initial residual = 0.000216986, Final residual = 7.95263e-08, No Iterations 1
time step continuity errors : sum local = 6.81366e-07, global = 5.42101e-18, cumulative = 5.29157e-16
rho max/min : 1.225 1.225
DILUPBiCGStab:  Solving for omega, Initial residual = 0.0023946, Final residual = 9.92336e-06, No Iterations 1
DILUPBiCGStab:  Solving for k, Initial residual = 0.134433, Final residual = 0.000996948, No Iterations 1
ExecutionTime = 0.06 s  ClockTime = 0 s

Time = 75

DILUPBiCGStab:  Solving for h, Initial residual = 0.00386316, Final residual = 4.53689e-06, No Iterations 1
GAMG:  Solving for p_rgh, Initial residual = 0.000163747, Final residual = 1.51725e-08, No Iterations 1
time step continuity errors : sum local = 1.19243e-07, global = 1.66967e-16, cumulative = 6.96124e-16
rho max/min : 1.225 1.225
DILUPBiCGStab:  Solving for omega, Initial residual = 0.0014074, Final residual = 1.04287e-05, No Iterations 1
DILUPBiCGStab:  Solving for k, Initial residual = 0.125293, Final residual = 0.000835157, No Iterations 1
ExecutionTime = 0.06 s  ClockTime = 0 s

Time = 76

DILUPBiCGStab:  Solving for h, Initial residual = 0.00409217, Final residual = 4.74612e-06, No Iterations 1
GAMG:  Solving for p_rgh, Initial residual = 0.000161408, Final residual = 4.25448e-08, No Iterations 1
time step continuity errors : sum local = 3.03494e-07, global = 1.23057e-16, cumulative = 8.19181e-16
rho max/min : 1.225 1.225
DILUPBiCGStab:  Solving for omega, Initial residual = 0.0107777, Final residual = 1.83524e-05, No Iterations 1
DILUPBiCGStab:  Solving for k, Initial residual = 0.289099, Final residual = 0.000831351, No Iterations 1
ExecutionTime = 0.06 s  ClockTime = 0 s

Time = 77

DILUPBiCGStab:  Solving for h, Initial residual = 0.00392128, Final residual = 3.59356e-06, No Iterations 1
GAMG:  Solving for p_rgh, Initial residual = 0.000348684, Final residual = 2.13404e-08, No Iterations 1
time step continuity errors : sum local = 2.17312e-07, global = -1.20346e-16, cumulative = 6.98835e-16
rho max/min : 1.225 1.225
DILUPBiCGStab:  Solving for omega, Initial residual = 0.014585, Final residual = 2.04275e-05, No Iterations 1
DILUPBiCGStab:  Solving for k, Initial residual = 0.141795, Final residual = 0.000974463, No Iterations 1
ExecutionTime = 0.06 s  ClockTime = 0 s

Time = 78

DILUPBiCGStab:  Solving for h, Initial residual = 0.00396885, Final residual = 3.9664e-06, No Iterations 1
GAMG:  Solving for p_rgh, Initial residual = 0.000262006, Final residual = 3.12455e-10, No Iterations 1
time step continuity errors : sum local = 2.72986e-09, global = 2.49366e-16, cumulative = 9.48201e-16
rho max/min : 1.225 1.225
DILUPBiCGStab:  Solving for omega, Initial residual = 0.00843691, Final residual = 8.40071e-06, No Iterations 1
DILUPBiCGStab:  Solving for k, Initial residual = 0.310458, Final residual = 0.000898143, No Iterations 1
ExecutionTime = 0.06 s  ClockTime = 0 s

Time = 79

DILUPBiCGStab:  Solving for h, Initial residual = 0.00368114, Final residual = 4.40896e-06, No Iterations 1
GAMG:  Solving for p_rgh, Initial residual = 0.000424612, Final residual = 4.00461e-08, No Iterations 1
time step continuity errors : sum local = 3.25362e-07, global = -8.23994e-17, cumulative = 8.65802e-16
rho max/min : 1.225 1.225
DILUPBiCGStab:  Solving for omega, Initial residual = 0.0114254, Final residual = 7.98783e-06, No Iterations 1
DILUPBiCGStab:  Solving for k, Initial residual = 0.154596, Final residual = 0.0010775, No Iterations 1
ExecutionTime = 0.07 s  ClockTime = 0 s

Time = 80

DILUPBiCGStab:  Solving for h, Initial residual = 0.00356708, Final residual = 4.4801e-06, No Iterations 1
GAMG:  Solving for p_rgh, Initial residual = 0.000238342, Final residual = 9.43783e-08, No Iterations 1
time step continuity errors : sum local = 7.10571e-07, global = -5.85469e-17, cumulative = 8.07255e-16
rho max/min : 1.225 1.225
DILUPBiCGStab:  Solving for omega, Initial residual = 0.0022654, Final residual = 7.95246e-06, No Iterations 1
DILUPBiCGStab:  Solving for k, Initial residual = 0.131137, Final residual = 0.000874419, No Iterations 1
ExecutionTime = 0.07 s  ClockTime = 0 s

Time = 81

DILUPBiCGStab:  Solving for h, Initial residual = 0.0037566, Final residual = 4.83583e-06, No Iterations 1
GAMG:  Solving for p_rgh, Initial residual = 0.000173889, Final residual = 2.39945e-08, No Iterations 1
time step continuity errors : sum local = 1.65856e-07, global = -8.23994e-17, cumulative = 7.24856e-16
rho max/min : 1.225 1.225
DILUPBiCGStab:  Solving for omega, Initial residual = 0.0012176, Final residual = 8.81519e-06, No Iterations 1
DILUPBiCGStab:  Solving for k, Initial residual = 0.117002, Final residual = 0.000696801, No Iterations 1
ExecutionTime = 0.07 s  ClockTime = 0 s

Time = 82

DILUPBiCGStab:  Solving for h, Initial residual = 0.00399359, Final residual = 5.06343e-06, No Iterations 1
GAMG:  Solving for p_rgh, Initial residual = 0.000160324, Final residual = 4.01853e-08, No Iterations 1
time step continuity errors : sum local = 2.54858e-07, global = -8.29415e-17, cumulative = 6.41914e-16
rho max/min : 1.225 1.225
DILUPBiCGStab:  Solving for omega, Initial residual = 0.00951964, Final residual = 1.55744e-05, No Iterations 1
DILUPBiCGStab:  Solving for k, Initial residual = 0.268777, Final residual = 0.000657748, No Iterations 1
ExecutionTime = 0.07 s  ClockTime = 0 s

Time = 83

DILUPBiCGStab:  Solving for h, Initial residual = 0.00386683, Final residual = 3.93675e-06, No Iterations 1
GAMG:  Solving for p_rgh, Initial residual = 0.000376852, Final residual = 2.69436e-08, No Iterations 1
time step continuity errors : sum local = 2.36387e-07, global = -4.60786e-17, cumulative = 5.95836e-16
rho max/min : 1.225 1.225
DILUPBiCGStab:  Solving for omega, Initial residual = 0.0130183, Final residual = 1.71744e-05, No Iterations 1
DILUPBiCGStab:  Solving for k, Initial residual = 0.128834, Final residual = 0.000786366, No Iterations 1
ExecutionTime = 0.07 s  ClockTime = 0 s

Time = 84

DILUPBiCGStab:  Solving for h, Initial residual = 0.00386913, Final residual = 4.26094e-06, No Iterations 1
GAMG:  Solving for p_rgh, Initial residual = 0.000282424, Final residual = 5.12683e-10, No Iterations 1
time step continuity errors : sum local = 3.88964e-09, global = -1.89735e-17, cumulative = 5.76862e-16
rho max/min : 1.225 1.225
DILUPBiCGStab:  Solving for omega, Initial residual = 0.0022768, Final residual = 7.37042e-06, No Iterations 1
DILUPBiCGStab:  Solving for k, Initial residual = 0.105533, Final residual = 0.000602149, No Iterations 1
ExecutionTime = 0.07 s  ClockTime = 0 s

Time = 85

DILUPBiCGStab:  Solving for h, Initial residual = 0.00393848, Final residual = 4.38577e-06, No Iterations 1
GAMG:  Solving for p_rgh, Initial residual = 0.000182305, Final residual = 1.37011e-08, No Iterations 1
time step continuity errors : sum local = 9.80984e-08, global = 8.78204e-17, cumulative = 6.64683e-16
rho max/min : 1.225 1.225
DILUPBiCGStab:  Solving for omega, Initial residual = 0.0128493, Final residual = 5.2027e-06, No Iterations 1
DILUPBiCGStab:  Solving for k, Initial residual = 0.283392, Final residual = 0.000530436, No Iterations 1
ExecutionTime = 0.07 s  ClockTime = 0 s

Time = 86

DILUPBiCGStab:  Solving for h, Initial residual = 0.00368768, Final residual = 4.91233e-06, No Iterations 1
GAMG:  Solving for p_rgh, Initial residual = 0.000674239, Final residual = 4.52031e-08, No Iterations 1
time step continuity errors : sum local = 3.00676e-07, global = 1.27936e-16, cumulative = 7.92618e-16
rho max/min : 1.225 1.225
DILUPBiCGStab:  Solving for omega, Initial residual = 0.0195067, Final residual = 5.90457e-06, No Iterations 1
DILUPBiCGStab:  Solving for k, Initial residual = 0.123403, Final residual = 0.000667766, No Iterations 1
ExecutionTime = 0.07 s  ClockTime = 0 s

Time = 87

DILUPBiCGStab:  Solving for h, Initial residual = 0.0037031, Final residual = 5.13277e-06, No Iterations 1
GAMG:  Solving for p_rgh, Initial residual = 0.000345551, Final residual = 1.21997e-07, No Iterations 1
time step continuity errors : sum local = 7.53368e-07, global = 8.07731e-17, cumulative = 8.73391e-16
rho max/min : 1.225 1.225
DILUPBiCGStab:  Solving for omega, Initial residual = 0.00229035, Final residual = 6.26301e-06, No Iterations 1
DILUPBiCGStab:  Solving for k, Initial residual = 0.100639, Final residual = 0.000528118, No Iterations 1
ExecutionTime = 0.07 s  ClockTime = 0 s

Time = 88

DILUPBiCGStab:  Solving for h, Initial residual = 0.00384215, Final residual = 5.41801e-06, No Iterations 1
GAMG:  Solving for p_rgh, Initial residual = 0.000222846, Final residual = 3.41076e-09, No Iterations 1
time step continuity errors : sum local = 1.95224e-08, global = -3.41524e-17, cumulative = 8.39239e-16
rho max/min : 1.225 1.225
DILUPBiCGStab:  Solving for omega, Initial residual = 0.00153816, Final residual = 7.50505e-06, No Iterations 1
DILUPBiCGStab:  Solving for k, Initial residual = 0.0882141, Final residual = 0.000411573, No Iterations 1
ExecutionTime = 0.07 s  ClockTime = 0 s

Time = 89

DILUPBiCGStab:  Solving for h, Initial residual = 0.00403761, Final residual = 5.56322e-06, No Iterations 1
GAMG:  Solving for p_rgh, Initial residual = 0.000219774, Final residual = 8.74821e-08, No Iterations 1
time step continuity errors : sum local = 4.59623e-07, global = -9.37835e-17, cumulative = 7.45456e-16
rho max/min : 1.225 1.225
DILUPBiCGStab:  Solving for omega, Initial residual = 0.0138464, Final residual = 1.77788e-05, No Iterations 1
DILUPBiCGStab:  Solving for k, Initial residual = 0.242832, Final residual = 0.000402785, No Iterations 1
ExecutionTime = 0.07 s  ClockTime = 0 s

Time = 90

DILUPBiCGStab:  Solving for h, Initial residual = 0.00387437, Final residual = 4.24556e-06, No Iterations 1
GAMG:  Solving for p_rgh, Initial residual = 0.000459781, Final residual = 2.31644e-08, No Iterations 1
time step continuity errors : sum local = 1.83226e-07, global = -6.93889e-17, cumulative = 6.76067e-16
rho max/min : 1.225 1.225
DILUPBiCGStab:  Solving for omega, Initial residual = 0.0200228, Final residual = 1.83757e-05, No Iterations 1
DILUPBiCGStab:  Solving for k, Initial residual = 0.0984045, Final residual = 0.000482783, No Iterations 1
ExecutionTime = 0.07 s  ClockTime = 0 s

Time = 91

DILUPBiCGStab:  Solving for h, Initial residual = 0.0038334, Final residual = 4.58335e-06, No Iterations 1
GAMG:  Solving for p_rgh, Initial residual = 0.000323991, Final residual = 1.11136e-08, No Iterations 1
time step continuity errors : sum local = 7.47687e-08, global = 2.98156e-17, cumulative = 7.05882e-16
rho max/min : 1.225 1.225
DILUPBiCGStab:  Solving for omega, Initial residual = 0.00244401, Final residual = 6.4163e-06, No Iterations 1
DILUPBiCGStab:  Solving for k, Initial residual = 0.0803964, Final residual = 0.000371647, No Iterations 1
ExecutionTime = 0.07 s  ClockTime = 0 s

Time = 92

DILUPBiCGStab:  Solving for h, Initial residual = 0.00386828, Final residual = 4.72758e-06, No Iterations 1
GAMG:  Solving for p_rgh, Initial residual = 0.000197489, Final residual = 2.20527e-08, No Iterations 1
time step continuity errors : sum local = 1.39085e-07, global = -1.68051e-16, cumulative = 5.37831e-16
rho max/min : 1.225 1.225
DILUPBiCGStab:  Solving for omega, Initial residual = 0.0131674, Final residual = 3.92069e-06, No Iterations 1
DILUPBiCGStab:  Solving for k, Initial residual = 0.243958, Final residual = 0.000332251, No Iterations 1
ExecutionTime = 0.08 s  ClockTime = 0 s

Time = 93

DILUPBiCGStab:  Solving for h, Initial residual = 0.00368553, Final residual = 5.351e-06, No Iterations 1
GAMG:  Solving for p_rgh, Initial residual = 0.000768785, Final residual = 5.69771e-08, No Iterations 1
time step continuity errors : sum local = 3.3434e-07, global = 3.03577e-17, cumulative = 5.68189e-16
rho max/min : 1.225 1.225
DILUPBiCGStab:  Solving for omega, Initial residual = 0.0206006, Final residual = 4.5406e-06, No Iterations 1
DILUPBiCGStab:  Solving for k, Initial residual = 0.0933407, Final residual = 0.00040562, No Iterations 1
ExecutionTime = 0.08 s  ClockTime = 0 s

Time = 94

DILUPBiCGStab:  Solving for h, Initial residual = 0.00365202, Final residual = 5.5347e-06, No Iterations 1
GAMG:  Solving for p_rgh, Initial residual = 0.00039031, Final residual = 1.38991e-07, No Iterations 1
time step continuity errors : sum local = 7.59814e-07, global = 1.69136e-16, cumulative = 7.37324e-16
rho max/min : 1.225 1.225
DILUPBiCGStab:  Solving for omega, Initial residual = 0.00236543, Final residual = 5.04244e-06, No Iterations 1
DILUPBiCGStab:  Solving for k, Initial residual = 0.0780278, Final residual = 0.000332032, No Iterations 1
ExecutionTime = 0.08 s  ClockTime = 0 s

Time = 95

DILUPBiCGStab:  Solving for h, Initial residual = 0.00377719, Final residual = 5.81987e-06, No Iterations 1
GAMG:  Solving for p_rgh, Initial residual = 0.000240951, Final residual = 6.60822e-10, No Iterations 1
time step continuity errors : sum local = 3.31772e-09, global = 2.0383e-16, cumulative = 9.41154e-16
rho max/min : 1.225 1.225
DILUPBiCGStab:  Solving for omega, Initial residual = 0.00153312, Final residual = 6.32768e-06, No Iterations 1
DILUPBiCGStab:  Solving for k, Initial residual = 0.0709518, Final residual = 0.000269802, No Iterations 1
ExecutionTime = 0.08 s  ClockTime = 0 s

Time = 96

DILUPBiCGStab:  Solving for h, Initial residual = 0.00394761, Final residual = 5.95294e-06, No Iterations 1
GAMG:  Solving for p_rgh, Initial residual = 0.000233009, Final residual = 1.03471e-07, No Iterations 1
time step continuity errors : sum local = 4.85905e-07, global = 1.97867e-16, cumulative = 1.13902e-15
rho max/min : 1.225 1.225
DILUPBiCGStab:  Solving for omega, Initial residual = 0.0137452, Final residual = 1.63141e-05, No Iterations 1
DILUPBiCGStab:  Solving for k, Initial residual = 0.219802, Final residual = 0.000271043, No Iterations 1
ExecutionTime = 0.08 s  ClockTime = 0 s

Time = 97

DILUPBiCGStab:  Solving for h, Initial residual = 0.00384926, Final residual = 4.68467e-06, No Iterations 1
GAMG:  Solving for p_rgh, Initial residual = 0.000492193, Final residual = 2.21873e-08, No Iterations 1
time step continuity errors : sum local = 1.5648e-07, global = 9.37835e-17, cumulative = 1.2328e-15
rho max/min : 1.225 1.225
DILUPBiCGStab:  Solving for omega, Initial residual = 0.0203172, Final residual = 1.68587e-05, No Iterations 1
DILUPBiCGStab:  Solving for k, Initial residual = 0.0793021, Final residual = 0.000316789, No Iterations 1
ExecutionTime = 0.08 s  ClockTime = 0 s

Time = 98

DILUPBiCGStab:  Solving for h, Initial residual = 0.00374528, Final residual = 4.92344e-06, No Iterations 1
GAMG:  Solving for p_rgh, Initial residual = 0.000333045, Final residual = 1.58163e-08, No Iterations 1
time step continuity errors : sum local = 9.64844e-08, global = 8.67362e-18, cumulative = 1.24148e-15
rho max/min : 1.225 1.225
DILUPBiCGStab:  Solving for omega, Initial residual = 0.0021679, Final residual = 5.07403e-06, No Iterations 1
DILUPBiCGStab:  Solving for k, Initial residual = 0.0658935, Final residual = 0.000242447, No Iterations 1
ExecutionTime = 0.08 s  ClockTime = 0 s

Time = 99

DILUPBiCGStab:  Solving for h, Initial residual = 0.00378413, Final residual = 5.05222e-06, No Iterations 1
GAMG:  Solving for p_rgh, Initial residual = 0.000196947, Final residual = 3.27188e-08, No Iterations 1
time step continuity errors : sum local = 1.8808e-07, global = 5.9089e-17, cumulative = 1.30057e-15
rho max/min : 1.225 1.225
DILUPBiCGStab:  Solving for omega, Initial residual = 0.0112123, Final residual = 2.91689e-06, No Iterations 1
DILUPBiCGStab:  Solving for k, Initial residual = 0.213923, Final residual = 0.00022133, No Iterations 1
ExecutionTime = 0.09 s  ClockTime = 0 s

Time = 100

DILUPBiCGStab:  Solving for h, Initial residual = 0.00365884, Final residual = 5.75433e-06, No Iterations 1
GAMG:  Solving for p_rgh, Initial residual = 0.000778973, Final residual = 7.96142e-08, No Iterations 1
time step continuity errors : sum local = 4.27559e-07, global = 1.68051e-16, cumulative = 1.46862e-15
rho max/min : 1.225 1.225
DILUPBiCGStab:  Solving for omega, Initial residual = 0.0174546, Final residual = 3.43148e-06, No Iterations 1
DILUPBiCGStab:  Solving for k, Initial residual = 0.074661, Final residual = 0.000258192, No Iterations 1
ExecutionTime = 0.09 s  ClockTime = 0 s

Time = 101

DILUPBiCGStab:  Solving for h, Initial residual = 0.00355549, Final residual = 5.84697e-06, No Iterations 1
GAMG:  Solving for p_rgh, Initial residual = 0.000430873, Final residual = 1.44319e-07, No Iterations 1
time step continuity errors : sum local = 7.25621e-07, global = -2.71051e-16, cumulative = 1.19757e-15
rho max/min : 1.225 1.225
DILUPBiCGStab:  Solving for omega, Initial residual = 0.00224771, Final residual = 3.88216e-06, No Iterations 1
DILUPBiCGStab:  Solving for k, Initial residual = 0.0635511, Final residual = 0.0002188, No Iterations 1
ExecutionTime = 0.09 s  ClockTime = 0 s

Time = 102

DILUPBiCGStab:  Solving for h, Initial residual = 0.00367608, Final residual = 6.13927e-06, No Iterations 1
GAMG:  Solving for p_rgh, Initial residual = 0.000228537, Final residual = 1.0788e-08, No Iterations 1
time step continuity errors : sum local = 5.05008e-08, global = 1.79978e-16, cumulative = 1.37755e-15
rho max/min : 1.225 1.225
DILUPBiCGStab:  Solving for omega, Initial residual = 0.00115192, Final residual = 5.06712e-06, No Iterations 1
DILUPBiCGStab:  Solving for k, Initial residual = 0.0599094, Final residual = 0.000183487, No Iterations 1
ExecutionTime = 0.09 s  ClockTime = 0 s

Time = 103

DILUPBiCGStab:  Solving for h, Initial residual = 0.00383034, Final residual = 6.28468e-06, No Iterations 1
GAMG:  Solving for p_rgh, Initial residual = 0.00020787, Final residual = 9.16744e-08, No Iterations 1
time step continuity errors : sum local = 3.9998e-07, global = -1.09504e-16, cumulative = 1.26804e-15
rho max/min : 1.225 1.225
DILUPBiCGStab:  Solving for omega, Initial residual = 0.0113165, Final residual = 1.34608e-05, No Iterations 1
DILUPBiCGStab:  Solving for k, Initial residual = 0.196728, Final residual = 0.000185038, No Iterations 1
ExecutionTime = 0.09 s  ClockTime = 0 s

Time = 104

DILUPBiCGStab:  Solving for h, Initial residual = 0.0037991, Final residual = 5.15947e-06, No Iterations 1
GAMG:  Solving for p_rgh, Initial residual = 0.000492897, Final residual = 2.87138e-08, No Iterations 1
time step continuity errors : sum local = 1.80812e-07, global = -2.49366e-17, cumulative = 1.2431e-15
rho max/min : 1.225 1.225
DILUPBiCGStab:  Solving for omega, Initial residual = 0.0165261, Final residual = 1.43292e-05, No Iterations 1
DILUPBiCGStab:  Solving for k, Initial residual = 0.066072, Final residual = 0.000209193, No Iterations 1
ExecutionTime = 0.09 s  ClockTime = 0 s

Time = 105

DILUPBiCGStab:  Solving for h, Initial residual = 0.00362711, Final residual = 5.2903e-06, No Iterations 1
GAMG:  Solving for p_rgh, Initial residual = 0.000340065, Final residual = 1.37119e-08, No Iterations 1
time step continuity errors : sum local = 7.61245e-08, global = -4.02781e-16, cumulative = 8.40323e-16
rho max/min : 1.225 1.225
DILUPBiCGStab:  Solving for omega, Initial residual = 0.00184929, Final residual = 3.56128e-06, No Iterations 1
DILUPBiCGStab:  Solving for k, Initial residual = 0.0558534, Final residual = 0.000156637, No Iterations 1
ExecutionTime = 0.09 s  ClockTime = 0 s

Time = 106

DILUPBiCGStab:  Solving for h, Initial residual = 0.00368114, Final residual = 5.3454e-06, No Iterations 1
GAMG:  Solving for p_rgh, Initial residual = 0.000203599, Final residual = 4.05061e-08, No Iterations 1
time step continuity errors : sum local = 2.14503e-07, global = -2.72677e-16, cumulative = 5.67646e-16
rho max/min : 1.225 1.225
DILUPBiCGStab:  Solving for omega, Initial residual = 0.00139242, Final residual = 2.54435e-06, No Iterations 1
DILUPBiCGStab:  Solving for k, Initial residual = 0.0532386, Final residual = 0.000129958, No Iterations 1
ExecutionTime = 0.09 s  ClockTime = 0 s

Time = 107

DILUPBiCGStab:  Solving for h, Initial residual = 0.00374703, Final residual = 5.47831e-06, No Iterations 1
GAMG:  Solving for p_rgh, Initial residual = 0.000138161, Final residual = 1.79639e-08, No Iterations 1
time step continuity errors : sum local = 8.96839e-08, global = 3.46945e-17, cumulative = 6.02341e-16
rho max/min : 1.225 1.225
DILUPBiCGStab:  Solving for omega, Initial residual = 0.0134464, Final residual = 2.14779e-06, No Iterations 1
DILUPBiCGStab:  Solving for k, Initial residual = 0.203042, Final residual = 0.000121422, No Iterations 1
ExecutionTime = 0.09 s  ClockTime = 0 s

Time = 108

DILUPBiCGStab:  Solving for h, Initial residual = 0.00383146, Final residual = 6.25401e-06, No Iterations 1
GAMG:  Solving for p_rgh, Initial residual = 0.000960417, Final residual = 1.22261e-07, No Iterations 1
time step continuity errors : sum local = 5.74149e-07, global = -1.19262e-17, cumulative = 5.90415e-16
rho max/min : 1.225 1.225
DILUPBiCGStab:  Solving for omega, Initial residual = 0.0214338, Final residual = 2.7681e-06, No Iterations 1
DILUPBiCGStab:  Solving for k, Initial residual = 0.0622873, Final residual = 0.000146022, No Iterations 1
ExecutionTime = 0.09 s  ClockTime = 0 s

Time = 109

DILUPBiCGStab:  Solving for h, Initial residual = 0.00358879, Final residual = 6.31514e-06, No Iterations 1
GAMG:  Solving for p_rgh, Initial residual = 0.000513683, Final residual = 1.71974e-07, No Iterations 1
time step continuity errors : sum local = 7.66706e-07, global = -9.70361e-17, cumulative = 4.93379e-16
rho max/min : 1.225 1.225
DILUPBiCGStab:  Solving for omega, Initial residual = 0.0022612, Final residual = 3.27171e-06, No Iterations 1
DILUPBiCGStab:  Solving for k, Initial residual = 0.0537133, Final residual = 0.000127859, No Iterations 1
ExecutionTime = 0.1 s  ClockTime = 0 s

Time = 110

DILUPBiCGStab:  Solving for h, Initial residual = 0.00365758, Final residual = 6.54202e-06, No Iterations 1
GAMG:  Solving for p_rgh, Initial residual = 0.00026355, Final residual = 3.30341e-09, No Iterations 1
time step continuity errors : sum local = 1.37469e-08, global = 1.65341e-16, cumulative = 6.58719e-16
rho max/min : 1.225 1.225
DILUPBiCGStab:  Solving for omega, Initial residual = 0.00129298, Final residual = 4.45568e-06, No Iterations 1
DILUPBiCGStab:  Solving for k, Initial residual = 0.0513976, Final residual = 0.00010977, No Iterations 1
ExecutionTime = 0.1 s  ClockTime = 0 s

Time = 111

DILUPBiCGStab:  Solving for h, Initial residual = 0.00375199, Final residual = 6.63163e-06, No Iterations 1
GAMG:  Solving for p_rgh, Initial residual = 0.000234595, Final residual = 1.27656e-07, No Iterations 1
time step continuity errors : sum local = 4.99361e-07, global = -1.43115e-16, cumulative = 5.15605e-16
rho max/min : 1.225 1.225
DILUPBiCGStab:  Solving for omega, Initial residual = 0.0132373, Final residual = 1.43444e-05, No Iterations 1
DILUPBiCGStab:  Solving for k, Initial residual = 0.195752, Final residual = 0.000118041, No Iterations 1
ExecutionTime = 0.1 s  ClockTime = 0 s

Time = 112

DILUPBiCGStab:  Solving for h, Initial residual = 0.00375693, Final residual = 5.50196e-06, No Iterations 1
GAMG:  Solving for p_rgh, Initial residual = 0.000542329, Final residual = 2.48309e-08, No Iterations 1
time step continuity errors : sum local = 1.46066e-07, global = -4.8247e-17, cumulative = 4.67358e-16
rho max/min : 1.225 1.225
DILUPBiCGStab:  Solving for omega, Initial residual = 0.0198269, Final residual = 1.51388e-05, No Iterations 1
DILUPBiCGStab:  Solving for k, Initial residual = 0.0581667, Final residual = 0.000136143, No Iterations 1
ExecutionTime = 0.1 s  ClockTime = 0 s

Time = 113

DILUPBiCGStab:  Solving for h, Initial residual = 0.0035208, Final residual = 5.61383e-06, No Iterations 1
GAMG:  Solving for p_rgh, Initial residual = 0.00035763, Final residual = 2.42911e-08, No Iterations 1
time step continuity errors : sum local = 1.2679e-07, global = -4.55365e-17, cumulative = 4.21821e-16
rho max/min : 1.225 1.225
DILUPBiCGStab:  Solving for omega, Initial residual = 0.00179686, Final residual = 3.39663e-06, No Iterations 1
DILUPBiCGStab:  Solving for k, Initial residual = 0.0488803, Final residual = 9.28784e-05, No Iterations 1
ExecutionTime = 0.1 s  ClockTime = 0 s

Time = 114

DILUPBiCGStab:  Solving for h, Initial residual = 0.00355981, Final residual = 5.65009e-06, No Iterations 1
GAMG:  Solving for p_rgh, Initial residual = 0.000212191, Final residual = 4.90164e-08, No Iterations 1
time step continuity errors : sum local = 2.41537e-07, global = 7.91468e-17, cumulative = 5.00968e-16
rho max/min : 1.225 1.225
DILUPBiCGStab:  Solving for omega, Initial residual = 0.00129526, Final residual = 2.06087e-06, No Iterations 1
DILUPBiCGStab:  Solving for k, Initial residual = 0.0471539, Final residual = 7.69548e-05, No Iterations 1
ExecutionTime = 0.1 s  ClockTime = 0 s

Time = 115

DILUPBiCGStab:  Solving for h, Initial residual = 0.00359568, Final residual = 5.67215e-06, No Iterations 1
GAMG:  Solving for p_rgh, Initial residual = 0.000136087, Final residual = 2.5731e-08, No Iterations 1
time step continuity errors : sum local = 1.19997e-07, global = -1.34983e-16, cumulative = 3.65985e-16
rho max/min : 1.225 1.225
DILUPBiCGStab:  Solving for omega, Initial residual = 0.0120709, Final residual = 1.59428e-06, No Iterations 1
DILUPBiCGStab:  Solving for k, Initial residual = 0.190634, Final residual = 7.27794e-05, No Iterations 1
ExecutionTime = 0.1 s  ClockTime = 0 s

Time = 116

DILUPBiCGStab:  Solving for h, Initial residual = 0.00375205, Final residual = 6.51137e-06, No Iterations 1
GAMG:  Solving for p_rgh, Initial residual = 0.000960839, Final residual = 1.51535e-07, No Iterations 1
time step continuity errors : sum local = 6.67154e-07, global = 1.21431e-16, cumulative = 4.87416e-16
rho max/min : 1.225 1.225
DILUPBiCGStab:  Solving for omega, Initial residual = 0.0192225, Final residual = 2.17073e-06, No Iterations 1
DILUPBiCGStab:  Solving for k, Initial residual = 0.0554469, Final residual = 8.88697e-05, No Iterations 1
ExecutionTime = 0.1 s  ClockTime = 0 s

Time = 117

DILUPBiCGStab:  Solving for h, Initial residual = 0.00347053, Final residual = 6.56719e-06, No Iterations 1
GAMG:  Solving for p_rgh, Initial residual = 0.000475931, Final residual = 1.59014e-07, No Iterations 1
time step continuity errors : sum local = 6.68248e-07, global = 1.24141e-16, cumulative = 6.11557e-16
rho max/min : 1.225 1.225
DILUPBiCGStab:  Solving for omega, Initial residual = 0.00223502, Final residual = 2.6254e-06, No Iterations 1
DILUPBiCGStab:  Solving for k, Initial residual = 0.0475833, Final residual = 8.05874e-05, No Iterations 1
ExecutionTime = 0.1 s  ClockTime = 0 s

Time = 118

DILUPBiCGStab:  Solving for h, Initial residual = 0.00351011, Final residual = 6.70352e-06, No Iterations 1
GAMG:  Solving for p_rgh, Initial residual = 0.000386593, Final residual = 3.699e-08, No Iterations 1
time step continuity errors : sum local = 1.4516e-07, global = 1.03541e-16, cumulative = 7.15098e-16
rho max/min : 1.225 1.225
DILUPBiCGStab:  Solving for omega, Initial residual = 0.00109221, Final residual = 3.68978e-06, No Iterations 1
DILUPBiCGStab:  Solving for k, Initial residual = 0.046019, Final residual = 7.13196e-05, No Iterations 1
ExecutionTime = 0.1 s  ClockTime = 0 s

Time = 119

DILUPBiCGStab:  Solving for h, Initial residual = 0.00357904, Final residual = 6.78469e-06, No Iterations 1
GAMG:  Solving for p_rgh, Initial residual = 0.000226021, Final residual = 1.14058e-07, No Iterations 1
time step continuity errors : sum local = 4.26174e-07, global = 7.86047e-17, cumulative = 7.93703e-16
rho max/min : 1.225 1.225
DILUPBiCGStab:  Solving for omega, Initial residual = 0.0115658, Final residual = 1.24191e-05, No Iterations 1
DILUPBiCGStab:  Solving for k, Initial residual = 0.186231, Final residual = 7.84962e-05, No Iterations 1
ExecutionTime = 0.1 s  ClockTime = 0 s

Time = 120

DILUPBiCGStab:  Solving for h, Initial residual = 0.00364356, Final residual = 5.78037e-06, No Iterations 1
GAMG:  Solving for p_rgh, Initial residual = 0.000557906, Final residual = 3.2633e-08, No Iterations 1
time step continuity errors : sum local = 1.78696e-07, global = -5.47522e-17, cumulative = 7.3895e-16
rho max/min : 1.225 1.225
DILUPBiCGStab:  Solving for omega, Initial residual = 0.0172737, Final residual = 1.37596e-05, No Iterations 1
DILUPBiCGStab:  Solving for k, Initial residual = 0.0525755, Final residual = 8.64323e-05, No Iterations 1
ExecutionTime = 0.1 s  ClockTime = 0 s

Time = 121

DILUPBiCGStab:  Solving for h, Initial residual = 0.00338822, Final residual = 5.87097e-06, No Iterations 1
GAMG:  Solving for p_rgh, Initial residual = 0.000352535, Final residual = 2.09469e-08, No Iterations 1
time step continuity errors : sum local = 1.01913e-07, global = -2.65087e-16, cumulative = 4.73863e-16
rho max/min : 1.225 1.225
DILUPBiCGStab:  Solving for omega, Initial residual = 0.001658, Final residual = 2.6823e-06, No Iterations 1
DILUPBiCGStab:  Solving for k, Initial residual = 0.0437562, Final residual = 5.24579e-05, No Iterations 1
ExecutionTime = 0.1 s  ClockTime = 0 s

Time = 122

DILUPBiCGStab:  Solving for h, Initial residual = 0.00339722, Final residual = 5.853e-06, No Iterations 1
GAMG:  Solving for p_rgh, Initial residual = 0.000200355, Final residual = 5.07208e-08, No Iterations 1
time step continuity errors : sum local = 2.37733e-07, global = 2.24972e-16, cumulative = 6.98835e-16
rho max/min : 1.225 1.225
DILUPBiCGStab:  Solving for omega, Initial residual = 0.00100212, Final residual = 1.739e-06, No Iterations 1
DILUPBiCGStab:  Solving for k, Initial residual = 0.0428048, Final residual = 4.39345e-05, No Iterations 1
ExecutionTime = 0.11 s  ClockTime = 0 s

Time = 123

DILUPBiCGStab:  Solving for h, Initial residual = 0.00342049, Final residual = 5.77647e-06, No Iterations 1
GAMG:  Solving for p_rgh, Initial residual = 0.000122399, Final residual = 3.86076e-08, No Iterations 1
time step continuity errors : sum local = 1.72467e-07, global = -6.50521e-18, cumulative = 6.9233e-16
rho max/min : 1.225 1.225
DILUPBiCGStab:  Solving for omega, Initial residual = 0.00893726, Final residual = 1.26857e-06, No Iterations 1
DILUPBiCGStab:  Solving for k, Initial residual = 0.176122, Final residual = 4.39901e-05, No Iterations 1
ExecutionTime = 0.11 s  ClockTime = 0 s

Time = 124

DILUPBiCGStab:  Solving for h, Initial residual = 0.00358672, Final residual = 6.62986e-06, No Iterations 1
GAMG:  Solving for p_rgh, Initial residual = 0.000863412, Final residual = 1.75526e-07, No Iterations 1
time step continuity errors : sum local = 7.44611e-07, global = 2.32561e-16, cumulative = 9.24891e-16
rho max/min : 1.225 1.225
DILUPBiCGStab:  Solving for omega, Initial residual = 0.0141608, Final residual = 1.74218e-06, No Iterations 1
DILUPBiCGStab:  Solving for k, Initial residual = 0.0501084, Final residual = 5.4998e-05, No Iterations 1
ExecutionTime = 0.11 s  ClockTime = 0 s

Time = 125

DILUPBiCGStab:  Solving for h, Initial residual = 0.0033347, Final residual = 6.6365e-06, No Iterations 1
GAMG:  Solving for p_rgh, Initial residual = 0.000433077, Final residual = 1.52915e-07, No Iterations 1
time step continuity errors : sum local = 6.23716e-07, global = 1.95156e-17, cumulative = 9.44407e-16
rho max/min : 1.225 1.225
DILUPBiCGStab:  Solving for omega, Initial residual = 0.00201009, Final residual = 2.08319e-06, No Iterations 1
DILUPBiCGStab:  Solving for k, Initial residual = 0.0429499, Final residual = 5.2191e-05, No Iterations 1
ExecutionTime = 0.11 s  ClockTime = 0 s

Time = 126

DILUPBiCGStab:  Solving for h, Initial residual = 0.00333112, Final residual = 6.71831e-06, No Iterations 1
GAMG:  Solving for p_rgh, Initial residual = 0.000334224, Final residual = 5.17332e-08, No Iterations 1
time step continuity errors : sum local = 1.98386e-07, global = 1.50704e-16, cumulative = 1.09511e-15
rho max/min : 1.225 1.225
DILUPBiCGStab:  Solving for omega, Initial residual = 0.000789018, Final residual = 3.02655e-06, No Iterations 1
DILUPBiCGStab:  Solving for k, Initial residual = 0.0420737, Final residual = 4.86618e-05, No Iterations 1
ExecutionTime = 0.11 s  ClockTime = 0 s

Time = 127

DILUPBiCGStab:  Solving for h, Initial residual = 0.00338286, Final residual = 6.80418e-06, No Iterations 1
GAMG:  Solving for p_rgh, Initial residual = 0.000205493, Final residual = 9.66531e-08, No Iterations 1
time step continuity errors : sum local = 3.5509e-07, global = 1.1601e-16, cumulative = 1.21112e-15
rho max/min : 1.225 1.225
DILUPBiCGStab:  Solving for omega, Initial residual = 0.00133683, Final residual = 3.49534e-06, No Iterations 1
DILUPBiCGStab:  Solving for k, Initial residual = 0.0416853, Final residual = 4.41207e-05, No Iterations 1
ExecutionTime = 0.11 s  ClockTime = 0 s

Time = 128

DILUPBiCGStab:  Solving for h, Initial residual = 0.00354114, Final residual = 6.80765e-06, No Iterations 1
GAMG:  Solving for p_rgh, Initial residual = 0.000183897, Final residual = 1.17257e-07, No Iterations 1
[...]
rho max/min : 1.225 1.225
DILUPBiCGStab:  Solving for omega, Initial residual = 0.00062075, Final residual = 1.04737e-06, No Iterations 1
DILUPBiCGStab:  Solving for k, Initial residual = 0.0175572, Final residual = 7.66726e-06, No Iterations 1
ExecutionTime = 1.56 s  ClockTime = 2 s

Time = 1969

DILUPBiCGStab:  Solving for h, Initial residual = 0.000420313, Final residual = 6.70209e-07, No Iterations 1
GAMG:  Solving for p_rgh, Initial residual = 5.5499e-05, Final residual = 1.85013e-08, No Iterations 1
time step continuity errors : sum local = 6.16539e-08, global = -1.57751e-16, cumulative = 8.61465e-16
rho max/min : 1.225 1.225
DILUPBiCGStab:  Solving for omega, Initial residual = 0.0093329, Final residual = 8.42409e-06, No Iterations 1
DILUPBiCGStab:  Solving for k, Initial residual = 0.175608, Final residual = 3.63124e-05, No Iterations 1
ExecutionTime = 1.56 s  ClockTime = 2 s

Time = 1970

DILUPBiCGStab:  Solving for h, Initial residual = 0.000772581, Final residual = 7.6499e-07, No Iterations 1
GAMG:  Solving for p_rgh, Initial residual = 0.000485766, Final residual = 1.60733e-08, No Iterations 1
time step continuity errors : sum local = 7.97662e-08, global = -6.66784e-17, cumulative = 7.94787e-16
rho max/min : 1.225 1.225
DILUPBiCGStab:  Solving for omega, Initial residual = 0.0154519, Final residual = 1.21689e-05, No Iterations 1
DILUPBiCGStab:  Solving for k, Initial residual = 0.0235401, Final residual = 3.9998e-05, No Iterations 1
ExecutionTime = 1.56 s  ClockTime = 2 s

Time = 1971

DILUPBiCGStab:  Solving for h, Initial residual = 0.000540459, Final residual = 6.39705e-07, No Iterations 1
GAMG:  Solving for p_rgh, Initial residual = 0.000336276, Final residual = 4.49046e-08, No Iterations 1
time step continuity errors : sum local = 2.04015e-07, global = -2.7105e-18, cumulative = 7.92076e-16
rho max/min : 1.225 1.225
DILUPBiCGStab:  Solving for omega, Initial residual = 0.00142475, Final residual = 2.14251e-06, No Iterations 1
DILUPBiCGStab:  Solving for k, Initial residual = 0.0191273, Final residual = 1.11291e-05, No Iterations 1
ExecutionTime = 1.56 s  ClockTime = 2 s

Time = 1972

DILUPBiCGStab:  Solving for h, Initial residual = 0.000460304, Final residual = 6.05511e-07, No Iterations 1
GAMG:  Solving for p_rgh, Initial residual = 0.000186587, Final residual = 6.14218e-08, No Iterations 1
time step continuity errors : sum local = 2.7734e-07, global = 9.75782e-17, cumulative = 8.89655e-16
rho max/min : 1.225 1.225
DILUPBiCGStab:  Solving for omega, Initial residual = 0.000529779, Final residual = 1.03112e-06, No Iterations 1
DILUPBiCGStab:  Solving for k, Initial residual = 0.01815, Final residual = 6.41416e-06, No Iterations 1
ExecutionTime = 1.56 s  ClockTime = 2 s

Time = 1973

DILUPBiCGStab:  Solving for h, Initial residual = 0.000391199, Final residual = 5.88733e-07, No Iterations 1
GAMG:  Solving for p_rgh, Initial residual = 0.000109324, Final residual = 3.6814e-08, No Iterations 1
time step continuity errors : sum local = 1.63627e-07, global = 1.24683e-16, cumulative = 1.01434e-15
rho max/min : 1.225 1.225
DILUPBiCGStab:  Solving for omega, Initial residual = 0.000593942, Final residual = 7.65451e-07, No Iterations 1
DILUPBiCGStab:  Solving for k, Initial residual = 0.0177827, Final residual = 5.14955e-06, No Iterations 1
ExecutionTime = 1.56 s  ClockTime = 2 s

Time = 1974

DILUPBiCGStab:  Solving for h, Initial residual = 0.000365011, Final residual = 5.78331e-07, No Iterations 1
GAMG:  Solving for p_rgh, Initial residual = 6.80865e-05, Final residual = 2.29702e-08, No Iterations 1
time step continuity errors : sum local = 9.99959e-08, global = -3.93565e-16, cumulative = 6.20773e-16
rho max/min : 1.225 1.225
DILUPBiCGStab:  Solving for omega, Initial residual = 0.000572542, Final residual = 5.42947e-07, No Iterations 1
DILUPBiCGStab:  Solving for k, Initial residual = 0.0174174, Final residual = 4.29963e-06, No Iterations 1
ExecutionTime = 1.56 s  ClockTime = 2 s

Time = 1975

DILUPBiCGStab:  Solving for h, Initial residual = 0.000350164, Final residual = 5.59396e-07, No Iterations 1
GAMG:  Solving for p_rgh, Initial residual = 4.86939e-05, Final residual = 4.82254e-09, No Iterations 1
time step continuity errors : sum local = 2.05899e-08, global = 2.06541e-16, cumulative = 8.27313e-16
rho max/min : 1.225 1.225
DILUPBiCGStab:  Solving for omega, Initial residual = 0.000597959, Final residual = 4.06659e-07, No Iterations 1
DILUPBiCGStab:  Solving for k, Initial residual = 0.0169664, Final residual = 3.93781e-06, No Iterations 1
ExecutionTime = 1.56 s  ClockTime = 2 s

Time = 1976

DILUPBiCGStab:  Solving for h, Initial residual = 0.000352095, Final residual = 5.4457e-07, No Iterations 1
GAMG:  Solving for p_rgh, Initial residual = 3.92374e-05, Final residual = 6.46117e-09, No Iterations 1
time step continuity errors : sum local = 2.69841e-08, global = 2.82435e-16, cumulative = 1.10975e-15
rho max/min : 1.225 1.225
DILUPBiCGStab:  Solving for omega, Initial residual = 0.000636406, Final residual = 3.34445e-07, No Iterations 1
DILUPBiCGStab:  Solving for k, Initial residual = 0.0164738, Final residual = 4.02075e-06, No Iterations 1
ExecutionTime = 1.57 s  ClockTime = 2 s

Time = 1977

DILUPBiCGStab:  Solving for h, Initial residual = 0.000359167, Final residual = 5.44628e-07, No Iterations 1
GAMG:  Solving for p_rgh, Initial residual = 2.89731e-05, Final residual = 1.0742e-09, No Iterations 1
time step continuity errors : sum local = 4.36452e-09, global = 2.51535e-16, cumulative = 1.36128e-15
rho max/min : 1.225 1.225
DILUPBiCGStab:  Solving for omega, Initial residual = 0.000681893, Final residual = 3.32822e-07, No Iterations 1
DILUPBiCGStab:  Solving for k, Initial residual = 0.0161118, Final residual = 3.89969e-06, No Iterations 1
ExecutionTime = 1.57 s  ClockTime = 2 s

Time = 1978

DILUPBiCGStab:  Solving for h, Initial residual = 0.000358815, Final residual = 5.42947e-07, No Iterations 1
GAMG:  Solving for p_rgh, Initial residual = 3.66665e-05, Final residual = 2.51464e-09, No Iterations 1
time step continuity errors : sum local = 1.01099e-08, global = -2.1684e-16, cumulative = 1.14444e-15
rho max/min : 1.225 1.225
DILUPBiCGStab:  Solving for omega, Initial residual = 0.0100113, Final residual = 2.74485e-07, No Iterations 1
DILUPBiCGStab:  Solving for k, Initial residual = 0.189649, Final residual = 4.04949e-06, No Iterations 1
ExecutionTime = 1.57 s  ClockTime = 2 s

Time = 1979

DILUPBiCGStab:  Solving for h, Initial residual = 0.000779031, Final residual = 5.06153e-07, No Iterations 1
GAMG:  Solving for p_rgh, Initial residual = 0.000860979, Final residual = 1.86946e-07, No Iterations 1
time step continuity errors : sum local = 7.39175e-07, global = 3.68629e-17, cumulative = 1.18131e-15
rho max/min : 1.225 1.225
DILUPBiCGStab:  Solving for omega, Initial residual = 0.0176668, Final residual = 3.79864e-07, No Iterations 1
DILUPBiCGStab:  Solving for k, Initial residual = 0.0233422, Final residual = 6.98686e-06, No Iterations 1
ExecutionTime = 1.57 s  ClockTime = 2 s

Time = 1980

DILUPBiCGStab:  Solving for h, Initial residual = 0.000517524, Final residual = 5.21429e-07, No Iterations 1
GAMG:  Solving for p_rgh, Initial residual = 0.000441613, Final residual = 1.80815e-07, No Iterations 1
time step continuity errors : sum local = 7.07019e-07, global = -2.1684e-17, cumulative = 1.15962e-15
rho max/min : 1.225 1.225
DILUPBiCGStab:  Solving for omega, Initial residual = 0.00166282, Final residual = 4.00349e-07, No Iterations 1
DILUPBiCGStab:  Solving for k, Initial residual = 0.0202657, Final residual = 7.73327e-06, No Iterations 1
ExecutionTime = 1.57 s  ClockTime = 2 s

Time = 1981

DILUPBiCGStab:  Solving for h, Initial residual = 0.000438675, Final residual = 5.39895e-07, No Iterations 1
GAMG:  Solving for p_rgh, Initial residual = 0.000297046, Final residual = 5.10584e-08, No Iterations 1
time step continuity errors : sum local = 1.95502e-07, global = -1.40946e-17, cumulative = 1.14553e-15
rho max/min : 1.225 1.225
DILUPBiCGStab:  Solving for omega, Initial residual = 0.000312702, Final residual = 5.48289e-07, No Iterations 1
DILUPBiCGStab:  Solving for k, Initial residual = 0.0192962, Final residual = 8.35858e-06, No Iterations 1
ExecutionTime = 1.57 s  ClockTime = 2 s

Time = 1982

DILUPBiCGStab:  Solving for h, Initial residual = 0.000371306, Final residual = 5.70189e-07, No Iterations 1
GAMG:  Solving for p_rgh, Initial residual = 0.000176238, Final residual = 8.6606e-08, No Iterations 1
time step continuity errors : sum local = 3.26788e-07, global = 2.53161e-16, cumulative = 1.39869e-15
rho max/min : 1.225 1.225
DILUPBiCGStab:  Solving for omega, Initial residual = 0.000464523, Final residual = 5.38288e-07, No Iterations 1
DILUPBiCGStab:  Solving for k, Initial residual = 0.0193163, Final residual = 9.0902e-06, No Iterations 1
ExecutionTime = 1.57 s  ClockTime = 2 s

Time = 1983

DILUPBiCGStab:  Solving for h, Initial residual = 0.000349847, Final residual = 6.00666e-07, No Iterations 1
GAMG:  Solving for p_rgh, Initial residual = 0.000117409, Final residual = 8.0613e-08, No Iterations 1
time step continuity errors : sum local = 2.96476e-07, global = -9.75782e-18, cumulative = 1.38893e-15
rho max/min : 1.225 1.225
DILUPBiCGStab:  Solving for omega, Initial residual = 0.000378755, Final residual = 6.36049e-07, No Iterations 1
DILUPBiCGStab:  Solving for k, Initial residual = 0.0190754, Final residual = 9.62245e-06, No Iterations 1
ExecutionTime = 1.57 s  ClockTime = 2 s

Time = 1984

DILUPBiCGStab:  Solving for h, Initial residual = 0.000351824, Final residual = 6.18982e-07, No Iterations 1
GAMG:  Solving for p_rgh, Initial residual = 0.000110639, Final residual = 6.02067e-08, No Iterations 1
time step continuity errors : sum local = 2.17074e-07, global = -8.45678e-17, cumulative = 1.30436e-15
rho max/min : 1.225 1.225
DILUPBiCGStab:  Solving for omega, Initial residual = 0.000384401, Final residual = 7.83247e-07, No Iterations 1
DILUPBiCGStab:  Solving for k, Initial residual = 0.0188254, Final residual = 9.90104e-06, No Iterations 1
ExecutionTime = 1.57 s  ClockTime = 2 s

Time = 1985

DILUPBiCGStab:  Solving for h, Initial residual = 0.000365645, Final residual = 6.33354e-07, No Iterations 1
GAMG:  Solving for p_rgh, Initial residual = 8.4786e-05, Final residual = 1.45501e-08, No Iterations 1
time step continuity errors : sum local = 5.12492e-08, global = -1.09504e-16, cumulative = 1.19486e-15
rho max/min : 1.225 1.225
DILUPBiCGStab:  Solving for omega, Initial residual = 0.000416565, Final residual = 9.07679e-07, No Iterations 1
DILUPBiCGStab:  Solving for k, Initial residual = 0.0186183, Final residual = 9.96415e-06, No Iterations 1
ExecutionTime = 1.57 s  ClockTime = 2 s

Time = 1986

DILUPBiCGStab:  Solving for h, Initial residual = 0.000376062, Final residual = 6.43143e-07, No Iterations 1
GAMG:  Solving for p_rgh, Initial residual = 6.76521e-05, Final residual = 2.11541e-08, No Iterations 1
time step continuity errors : sum local = 7.32924e-08, global = -9.05309e-17, cumulative = 1.10433e-15
rho max/min : 1.225 1.225
DILUPBiCGStab:  Solving for omega, Initial residual = 0.000474309, Final residual = 9.69243e-07, No Iterations 1
DILUPBiCGStab:  Solving for k, Initial residual = 0.018329, Final residual = 9.60059e-06, No Iterations 1
ExecutionTime = 1.57 s  ClockTime = 2 s

Time = 1987

DILUPBiCGStab:  Solving for h, Initial residual = 0.00038709, Final residual = 6.52043e-07, No Iterations 1
GAMG:  Solving for p_rgh, Initial residual = 6.10413e-05, Final residual = 3.10581e-09, No Iterations 1
time step continuity errors : sum local = 1.04594e-08, global = -2.71051e-17, cumulative = 1.07722e-15
rho max/min : 1.225 1.225
DILUPBiCGStab:  Solving for omega, Initial residual = 0.000546906, Final residual = 1.02159e-06, No Iterations 1
DILUPBiCGStab:  Solving for k, Initial residual = 0.0179873, Final residual = 8.88654e-06, No Iterations 1
ExecutionTime = 1.57 s  ClockTime = 2 s

Time = 1988

DILUPBiCGStab:  Solving for h, Initial residual = 0.000398606, Final residual = 6.55938e-07, No Iterations 1
GAMG:  Solving for p_rgh, Initial residual = 5.76047e-05, Final residual = 1.95353e-08, No Iterations 1
time step continuity errors : sum local = 6.57968e-08, global = 1.13299e-16, cumulative = 1.19052e-15
rho max/min : 1.225 1.225
DILUPBiCGStab:  Solving for omega, Initial residual = 0.000625182, Final residual = 1.04701e-06, No Iterations 1
DILUPBiCGStab:  Solving for k, Initial residual = 0.017599, Final residual = 7.7945e-06, No Iterations 1
ExecutionTime = 1.57 s  ClockTime = 2 s

Time = 1989

DILUPBiCGStab:  Solving for h, Initial residual = 0.000406424, Final residual = 6.57466e-07, No Iterations 1
GAMG:  Solving for p_rgh, Initial residual = 5.3773e-05, Final residual = 6.64889e-09, No Iterations 1
time step continuity errors : sum local = 2.20982e-08, global = 2.1684e-17, cumulative = 1.2122e-15
rho max/min : 1.225 1.225
DILUPBiCGStab:  Solving for omega, Initial residual = 0.00932686, Final residual = 8.42017e-06, No Iterations 1
DILUPBiCGStab:  Solving for k, Initial residual = 0.178236, Final residual = 3.68632e-05, No Iterations 1
ExecutionTime = 1.57 s  ClockTime = 2 s

Time = 1990

DILUPBiCGStab:  Solving for h, Initial residual = 0.000759805, Final residual = 7.50978e-07, No Iterations 1
GAMG:  Solving for p_rgh, Initial residual = 0.000491561, Final residual = 6.41011e-09, No Iterations 1
time step continuity errors : sum local = 3.18515e-08, global = 3.30682e-17, cumulative = 1.24527e-15
rho max/min : 1.225 1.225
DILUPBiCGStab:  Solving for omega, Initial residual = 0.0154623, Final residual = 1.2179e-05, No Iterations 1
DILUPBiCGStab:  Solving for k, Initial residual = 0.0236859, Final residual = 4.08975e-05, No Iterations 1
ExecutionTime = 1.57 s  ClockTime = 2 s

Time = 1991

DILUPBiCGStab:  Solving for h, Initial residual = 0.000528138, Final residual = 6.26786e-07, No Iterations 1
GAMG:  Solving for p_rgh, Initial residual = 0.000338201, Final residual = 5.30079e-08, No Iterations 1
time step continuity errors : sum local = 2.40358e-07, global = 4.87891e-18, cumulative = 1.25015e-15
rho max/min : 1.225 1.225
DILUPBiCGStab:  Solving for omega, Initial residual = 0.00138554, Final residual = 2.13305e-06, No Iterations 1
DILUPBiCGStab:  Solving for k, Initial residual = 0.0192233, Final residual = 1.13154e-05, No Iterations 1
ExecutionTime = 1.57 s  ClockTime = 2 s

Time = 1992

DILUPBiCGStab:  Solving for h, Initial residual = 0.000449745, Final residual = 5.91392e-07, No Iterations 1
GAMG:  Solving for p_rgh, Initial residual = 0.000197334, Final residual = 5.3014e-08, No Iterations 1
time step continuity errors : sum local = 2.39517e-07, global = 3.84892e-17, cumulative = 1.28864e-15
rho max/min : 1.225 1.225
DILUPBiCGStab:  Solving for omega, Initial residual = 0.000488031, Final residual = 1.05217e-06, No Iterations 1
DILUPBiCGStab:  Solving for k, Initial residual = 0.0182853, Final residual = 6.58193e-06, No Iterations 1
ExecutionTime = 1.57 s  ClockTime = 2 s

Time = 1993

DILUPBiCGStab:  Solving for h, Initial residual = 0.000382173, Final residual = 5.73383e-07, No Iterations 1
GAMG:  Solving for p_rgh, Initial residual = 9.9443e-05, Final residual = 4.41557e-08, No Iterations 1
time step continuity errors : sum local = 1.95889e-07, global = -2.91108e-16, cumulative = 9.97533e-16
rho max/min : 1.225 1.225
DILUPBiCGStab:  Solving for omega, Initial residual = 0.000525915, Final residual = 7.74909e-07, No Iterations 1
DILUPBiCGStab:  Solving for k, Initial residual = 0.0179859, Final residual = 5.26313e-06, No Iterations 1
ExecutionTime = 1.57 s  ClockTime = 2 s

Time = 1994

DILUPBiCGStab:  Solving for h, Initial residual = 0.000358078, Final residual = 5.60952e-07, No Iterations 1
GAMG:  Solving for p_rgh, Initial residual = 7.24735e-05, Final residual = 1.53529e-08, No Iterations 1
time step continuity errors : sum local = 6.68461e-08, global = -2.0112e-16, cumulative = 7.96413e-16
rho max/min : 1.225 1.225
DILUPBiCGStab:  Solving for omega, Initial residual = 0.000499511, Final residual = 5.9809e-07, No Iterations 1
DILUPBiCGStab:  Solving for k, Initial residual = 0.0177014, Final residual = 4.42133e-06, No Iterations 1
ExecutionTime = 1.58 s  ClockTime = 2 s

Time = 1995

DILUPBiCGStab:  Solving for h, Initial residual = 0.000345298, Final residual = 5.41978e-07, No Iterations 1
GAMG:  Solving for p_rgh, Initial residual = 5.22429e-05, Final residual = 1.11377e-08, No Iterations 1
time step continuity errors : sum local = 4.74633e-08, global = -4.33681e-18, cumulative = 7.92076e-16
rho max/min : 1.225 1.225
DILUPBiCGStab:  Solving for omega, Initial residual = 0.000516878, Final residual = 4.52169e-07, No Iterations 1
DILUPBiCGStab:  Solving for k, Initial residual = 0.0173271, Final residual = 4.05662e-06, No Iterations 1
ExecutionTime = 1.58 s  ClockTime = 2 s

Time = 1996

DILUPBiCGStab:  Solving for h, Initial residual = 0.000349337, Final residual = 5.25039e-07, No Iterations 1
GAMG:  Solving for p_rgh, Initial residual = 3.4724e-05, Final residual = 1.14152e-10, No Iterations 1
time step continuity errors : sum local = 3.87205e-10, global = 5.58364e-17, cumulative = 8.47913e-16
rho max/min : 1.225 1.225
DILUPBiCGStab:  Solving for omega, Initial residual = 0.000559798, Final residual = 3.5116e-07, No Iterations 1
DILUPBiCGStab:  Solving for k, Initial residual = 0.0168961, Final residual = 4.13553e-06, No Iterations 1
ExecutionTime = 1.58 s  ClockTime = 2 s

Time = 1997

DILUPBiCGStab:  Solving for h, Initial residual = 0.000357914, Final residual = 5.27448e-07, No Iterations 1
GAMG:  Solving for p_rgh, Initial residual = 3.57114e-05, Final residual = 7.30379e-09, No Iterations 1
time step continuity errors : sum local = 2.98851e-08, global = -2.30935e-16, cumulative = 6.16978e-16
rho max/min : 1.225 1.225
DILUPBiCGStab:  Solving for omega, Initial residual = 0.000610728, Final residual = 3.47527e-07, No Iterations 1
DILUPBiCGStab:  Solving for k, Initial residual = 0.0165112, Final residual = 4.03795e-06, No Iterations 1
ExecutionTime = 1.58 s  ClockTime = 2 s

Time = 1998

DILUPBiCGStab:  Solving for h, Initial residual = 0.000359002, Final residual = 5.26539e-07, No Iterations 1
GAMG:  Solving for p_rgh, Initial residual = 3.20351e-05, Final residual = 2.2677e-10, No Iterations 1
time step continuity errors : sum local = 8.56206e-10, global = -4.39102e-17, cumulative = 5.73068e-16
rho max/min : 1.225 1.225
DILUPBiCGStab:  Solving for omega, Initial residual = 0.000662431, Final residual = 3.45009e-07, No Iterations 1
DILUPBiCGStab:  Solving for k, Initial residual = 0.0161434, Final residual = 4.42878e-06, No Iterations 1
ExecutionTime = 1.58 s  ClockTime = 2 s

Time = 1999

DILUPBiCGStab:  Solving for h, Initial residual = 0.000362009, Final residual = 5.25741e-07, No Iterations 1
GAMG:  Solving for p_rgh, Initial residual = 3.61333e-05, Final residual = 2.3809e-09, No Iterations 1
time step continuity errors : sum local = 9.39438e-09, global = -8.5652e-17, cumulative = 4.87416e-16
rho max/min : 1.225 1.225
DILUPBiCGStab:  Solving for omega, Initial residual = 0.010036, Final residual = 3.10894e-07, No Iterations 1
DILUPBiCGStab:  Solving for k, Initial residual = 0.186909, Final residual = 4.45685e-06, No Iterations 1
ExecutionTime = 1.58 s  ClockTime = 2 s

Time = 2000

DILUPBiCGStab:  Solving for h, Initial residual = 0.000780529, Final residual = 5.04344e-07, No Iterations 1
GAMG:  Solving for p_rgh, Initial residual = 0.000874596, Final residual = 1.92841e-07, No Iterations 1
time step continuity errors : sum local = 7.48766e-07, global = -6.77626e-17, cumulative = 4.19653e-16
rho max/min : 1.225 1.225
DILUPBiCGStab:  Solving for omega, Initial residual = 0.0177036, Final residual = 4.23903e-07, No Iterations 1
DILUPBiCGStab:  Solving for k, Initial residual = 0.0232773, Final residual = 7.8031e-06, No Iterations 1
ExecutionTime = 1.58 s  ClockTime = 2 s

End

