/*---------------------------------------------------------------------------*\
  =========                 |
  \\      /  F ield         | OpenFOAM: The Open Source CFD Toolbox
   \\    /   O peration     | Website:  https://openfoam.org
    \\  /    A nd           | Version:  7
     \\/     M anipulation  |
\*---------------------------------------------------------------------------*/
Build  : 7-3bcbaf946ae9
Exec   : buoyantSimpleFoam
Date   : Aug 04 2022
Time   : 20:20:10
Host   : "Lubuntu"
PID    : 811978
I/O    : uncollated
Case   : /home/ensm_student/Documents/CFD/Rechnerubung/Week8/turbulent_channel_ht
nProcs : 1
sigFpe : Enabling floating point exception trapping (FOAM_SIGFPE).
fileModificationChecking : Monitoring run-time modified files using timeStampMaster (fileModificationSkew 10)
allowSystemOperations : Allowing user-supplied system call operations

// * * * * * * * * * * * * * * * * * * * * * * * * * * * * * * * * * * * * * //
Create time

Create mesh for time = 0


SIMPLE: Convergence criteria found
        p_rgh: tolerance 0.0001
        U: tolerance 0.0001
        h: tolerance 0.0001
        "(k|epsilon|omega)": tolerance 0.001

Reading thermophysical properties

Selecting thermodynamics package 
{
    type            heRhoThermo;
    mixture         pureMixture;
    transport       const;
    thermo          hConst;
    equationOfState rhoConst;
    specie          specie;
    energy          sensibleEnthalpy;
}

Reading field U

Reading/calculating face flux field phi

Creating turbulence model

Selecting turbulence model type RAS
Selecting RAS turbulence model kOmegaSST
Selecting patchDistMethod meshWave
RAS
{
    RASModel        kOmegaSST;
    turbulence      on;
    printCoeffs     on;
    alphaK1         0.85;
    alphaK2         1;
    alphaOmega1     0.5;
    alphaOmega2     0.856;
    gamma1          0.555556;
    gamma2          0.44;
    beta1           0.075;
    beta2           0.0828;
    betaStar        0.09;
    a1              0.31;
    b1              1;
    c1              10;
    F3              false;
}


Reading g

Reading hRef
Calculating field g.h

Reading field p_rgh

No MRF models present

Radiation model not active: radiationProperties not found
Selecting radiationModel none
No finite volume options present

Starting time loop

Time = 1

DILUPBiCGStab:  Solving for h, Initial residual = 1, Final residual = 2.53648e-08, No Iterations 1
GAMG:  Solving for p_rgh, Initial residual = 1, Final residual = 0.00122492, No Iterations 1
time step continuity errors : sum local = 0.00403682, global = 2.31155e-16, cumulative = 2.31155e-16
rho max/min : 1.225 1.225
DILUPBiCGStab:  Solving for omega, Initial residual = 0.178498, Final residual = 1.51703e-06, No Iterations 1
DILUPBiCGStab:  Solving for k, Initial residual = 1, Final residual = 0.00212214, No Iterations 1
ExecutionTime = 0.01 s  ClockTime = 0 s

Time = 2

DILUPBiCGStab:  Solving for h, Initial residual = 0.919682, Final residual = 5.93159e-06, No Iterations 1
GAMG:  Solving for p_rgh, Initial residual = 0.000205791, Final residual = 2.53675e-07, No Iterations 1
time step continuity errors : sum local = 0.00343726, global = 5.82115e-16, cumulative = 8.1327e-16
rho max/min : 1.225 1.225
DILUPBiCGStab:  Solving for omega, Initial residual = 0.0428498, Final residual = 1.87168e-05, No Iterations 1
DILUPBiCGStab:  Solving for k, Initial residual = 0.586916, Final residual = 0.00294844, No Iterations 1
ExecutionTime = 0.01 s  ClockTime = 0 s

Time = 3

DILUPBiCGStab:  Solving for h, Initial residual = 0.268341, Final residual = 3.11959e-05, No Iterations 1
GAMG:  Solving for p_rgh, Initial residual = 0.000318221, Final residual = 3.78461e-07, No Iterations 1
time step continuity errors : sum local = 0.00385681, global = -3.6253e-17, cumulative = 7.77017e-16
rho max/min : 1.225 1.225
DILUPBiCGStab:  Solving for omega, Initial residual = 0.00613666, Final residual = 2.09154e-05, No Iterations 1
DILUPBiCGStab:  Solving for k, Initial residual = 0.189847, Final residual = 0.000907404, No Iterations 1
ExecutionTime = 0.01 s  ClockTime = 0 s

Time = 4

DILUPBiCGStab:  Solving for h, Initial residual = 0.151987, Final residual = 1.66646e-05, No Iterations 1
GAMG:  Solving for p_rgh, Initial residual = 0.000335993, Final residual = 9.43084e-08, No Iterations 1
time step continuity errors : sum local = 0.000498897, global = 4.54687e-16, cumulative = 1.2317e-15
rho max/min : 1.225 1.225
DILUPBiCGStab:  Solving for omega, Initial residual = 0.0035578, Final residual = 1.30209e-05, No Iterations 1
DILUPBiCGStab:  Solving for k, Initial residual = 0.0840751, Final residual = 0.000380342, No Iterations 1
ExecutionTime = 0.01 s  ClockTime = 0 s

Time = 5

DILUPBiCGStab:  Solving for h, Initial residual = 0.101798, Final residual = 1.09683e-05, No Iterations 1
GAMG:  Solving for p_rgh, Initial residual = 0.000636506, Final residual = 6.15917e-07, No Iterations 1
time step continuity errors : sum local = 0.00115831, global = -3.02831e-16, cumulative = 9.28873e-16
rho max/min : 1.225 1.225
DILUPBiCGStab:  Solving for omega, Initial residual = 0.00282276, Final residual = 6.62387e-06, No Iterations 1
DILUPBiCGStab:  Solving for k, Initial residual = 0.0602957, Final residual = 0.000290319, No Iterations 1
ExecutionTime = 0.01 s  ClockTime = 0 s

Time = 6

DILUPBiCGStab:  Solving for h, Initial residual = 0.0741887, Final residual = 7.45771e-06, No Iterations 1
GAMG:  Solving for p_rgh, Initial residual = 0.0028761, Final residual = 3.0507e-06, No Iterations 1
time step continuity errors : sum local = 0.00051765, global = -2.40083e-16, cumulative = 6.8879e-16
rho max/min : 1.225 1.225
DILUPBiCGStab:  Solving for omega, Initial residual = 0.00223429, Final residual = 3.67424e-06, No Iterations 1
DILUPBiCGStab:  Solving for k, Initial residual = 0.0504721, Final residual = 0.000243508, No Iterations 1
ExecutionTime = 0.01 s  ClockTime = 0 s

Time = 7

DILUPBiCGStab:  Solving for h, Initial residual = 0.0575736, Final residual = 5.40632e-06, No Iterations 1
GAMG:  Solving for p_rgh, Initial residual = 0.000271111, Final residual = 9.14565e-08, No Iterations 1
time step continuity errors : sum local = 3.70979e-05, global = -2.70373e-17, cumulative = 6.61753e-16
rho max/min : 1.225 1.225
DILUPBiCGStab:  Solving for omega, Initial residual = 0.0019545, Final residual = 2.47669e-06, No Iterations 1
DILUPBiCGStab:  Solving for k, Initial residual = 0.0415047, Final residual = 0.000190598, No Iterations 1
ExecutionTime = 0.01 s  ClockTime = 0 s

Time = 8

DILUPBiCGStab:  Solving for h, Initial residual = 0.0469887, Final residual = 4.19192e-06, No Iterations 1
GAMG:  Solving for p_rgh, Initial residual = 0.000291336, Final residual = 4.16539e-07, No Iterations 1
time step continuity errors : sum local = 0.000181685, global = 8.44322e-17, cumulative = 7.46185e-16
rho max/min : 1.225 1.225
DILUPBiCGStab:  Solving for omega, Initial residual = 0.00160354, Final residual = 1.87201e-06, No Iterations 1
DILUPBiCGStab:  Solving for k, Initial residual = 0.0354114, Final residual = 0.000152555, No Iterations 1
ExecutionTime = 0.01 s  ClockTime = 0 s

Time = 9

DILUPBiCGStab:  Solving for h, Initial residual = 0.0397027, Final residual = 3.36444e-06, No Iterations 1
GAMG:  Solving for p_rgh, Initial residual = 0.000325316, Final residual = 3.42462e-07, No Iterations 1
time step continuity errors : sum local = 9.72239e-05, global = -5.28142e-16, cumulative = 2.18043e-16
rho max/min : 1.225 1.225
DILUPBiCGStab:  Solving for omega, Initial residual = 0.00126836, Final residual = 1.52756e-06, No Iterations 1
DILUPBiCGStab:  Solving for k, Initial residual = 0.0313027, Final residual = 0.000127907, No Iterations 1
ExecutionTime = 0.01 s  ClockTime = 0 s

Time = 10

DILUPBiCGStab:  Solving for h, Initial residual = 0.0343764, Final residual = 2.76157e-06, No Iterations 1
GAMG:  Solving for p_rgh, Initial residual = 0.000330081, Final residual = 8.00852e-09, No Iterations 1
time step continuity errors : sum local = 9.91705e-07, global = 3.75879e-16, cumulative = 5.93923e-16
rho max/min : 1.225 1.225
DILUPBiCGStab:  Solving for omega, Initial residual = 0.00104637, Final residual = 1.31767e-06, No Iterations 1
DILUPBiCGStab:  Solving for k, Initial residual = 0.0283502, Final residual = 0.000112113, No Iterations 1
ExecutionTime = 0.01 s  ClockTime = 0 s

Time = 11

DILUPBiCGStab:  Solving for h, Initial residual = 0.0303153, Final residual = 2.30009e-06, No Iterations 1
GAMG:  Solving for p_rgh, Initial residual = 0.00134758, Final residual = 2.33353e-06, No Iterations 1
time step continuity errors : sum local = 3.1496e-05, global = 3.15232e-16, cumulative = 9.09154e-16
rho max/min : 1.225 1.225
DILUPBiCGStab:  Solving for omega, Initial residual = 0.000883151, Final residual = 1.14825e-06, No Iterations 1
DILUPBiCGStab:  Solving for k, Initial residual = 0.0262485, Final residual = 0.000101377, No Iterations 1
ExecutionTime = 0.02 s  ClockTime = 0 s

Time = 12

DILUPBiCGStab:  Solving for h, Initial residual = 0.0271223, Final residual = 1.9348e-06, No Iterations 1
GAMG:  Solving for p_rgh, Initial residual = 0.000207303, Final residual = 4.70732e-07, No Iterations 1
time step continuity errors : sum local = 2.08102e-05, global = -7.24383e-17, cumulative = 8.36716e-16
rho max/min : 1.225 1.225
DILUPBiCGStab:  Solving for omega, Initial residual = 0.000771916, Final residual = 1.01705e-06, No Iterations 1
DILUPBiCGStab:  Solving for k, Initial residual = 0.0245712, Final residual = 9.34541e-05, No Iterations 1
ExecutionTime = 0.02 s  ClockTime = 0 s

Time = 13

DILUPBiCGStab:  Solving for h, Initial residual = 0.0245528, Final residual = 1.63956e-06, No Iterations 1
GAMG:  Solving for p_rgh, Initial residual = 5.87772e-05, Final residual = 5.82614e-08, No Iterations 1
time step continuity errors : sum local = 3.85834e-06, global = -3.46538e-16, cumulative = 4.90178e-16
rho max/min : 1.225 1.225
DILUPBiCGStab:  Solving for omega, Initial residual = 0.00068742, Final residual = 9.17283e-07, No Iterations 1
DILUPBiCGStab:  Solving for k, Initial residual = 0.0231429, Final residual = 8.7108e-05, No Iterations 1
ExecutionTime = 0.02 s  ClockTime = 0 s

Time = 14

DILUPBiCGStab:  Solving for h, Initial residual = 0.0225122, Final residual = 1.42715e-06, No Iterations 1
GAMG:  Solving for p_rgh, Initial residual = 3.03878e-05, Final residual = 5.2622e-08, No Iterations 1
time step continuity errors : sum local = 3.68427e-06, global = 2.11419e-16, cumulative = 7.01597e-16
rho max/min : 1.225 1.225
DILUPBiCGStab:  Solving for omega, Initial residual = 0.000612712, Final residual = 8.51421e-07, No Iterations 1
DILUPBiCGStab:  Solving for k, Initial residual = 0.021927, Final residual = 8.18536e-05, No Iterations 1
ExecutionTime = 0.02 s  ClockTime = 0 s

Time = 15

DILUPBiCGStab:  Solving for h, Initial residual = 0.0208429, Final residual = 1.26432e-06, No Iterations 1
GAMG:  Solving for p_rgh, Initial residual = 2.15391e-05, Final residual = 5.01379e-08, No Iterations 1
time step continuity errors : sum local = 3.38343e-06, global = 2.95716e-16, cumulative = 9.97313e-16
rho max/min : 1.225 1.225
DILUPBiCGStab:  Solving for omega, Initial residual = 0.000556696, Final residual = 7.96108e-07, No Iterations 1
DILUPBiCGStab:  Solving for k, Initial residual = 0.0208519, Final residual = 7.73246e-05, No Iterations 1
ExecutionTime = 0.02 s  ClockTime = 0 s

Time = 16

DILUPBiCGStab:  Solving for h, Initial residual = 0.0194413, Final residual = 1.12911e-06, No Iterations 1
GAMG:  Solving for p_rgh, Initial residual = 1.17769e-05, Final residual = 1.56017e-08, No Iterations 1
time step continuity errors : sum local = 1.00605e-06, global = -2.3351e-16, cumulative = 7.63803e-16
rho max/min : 1.225 1.225
DILUPBiCGStab:  Solving for omega, Initial residual = 0.0005103, Final residual = 7.47265e-07, No Iterations 1
DILUPBiCGStab:  Solving for k, Initial residual = 0.0198821, Final residual = 7.33138e-05, No Iterations 1
ExecutionTime = 0.02 s  ClockTime = 0 s

Time = 17

DILUPBiCGStab:  Solving for h, Initial residual = 0.0182382, Final residual = 1.0131e-06, No Iterations 1
GAMG:  Solving for p_rgh, Initial residual = 6.1464e-06, Final residual = 5.71984e-09, No Iterations 1
time step continuity errors : sum local = 3.60131e-07, global = 2.25514e-16, cumulative = 9.89317e-16
rho max/min : 1.225 1.225
DILUPBiCGStab:  Solving for omega, Initial residual = 0.000466701, Final residual = 7.01748e-07, No Iterations 1
DILUPBiCGStab:  Solving for k, Initial residual = 0.0190034, Final residual = 6.97152e-05, No Iterations 1
ExecutionTime = 0.02 s  ClockTime = 0 s

Time = 18

DILUPBiCGStab:  Solving for h, Initial residual = 0.0171881, Final residual = 9.1218e-07, No Iterations 1
GAMG:  Solving for p_rgh, Initial residual = 3.33448e-06, Final residual = 8.12295e-09, No Iterations 1
time step continuity errors : sum local = 5.11744e-07, global = 2.39405e-16, cumulative = 1.22872e-15
rho max/min : 1.225 1.225
DILUPBiCGStab:  Solving for omega, Initial residual = 0.000429755, Final residual = 6.60303e-07, No Iterations 1
DILUPBiCGStab:  Solving for k, Initial residual = 0.0182139, Final residual = 6.64793e-05, No Iterations 1
ExecutionTime = 0.02 s  ClockTime = 0 s

Time = 19

DILUPBiCGStab:  Solving for h, Initial residual = 0.0162617, Final residual = 8.24454e-07, No Iterations 1
GAMG:  Solving for p_rgh, Initial residual = 3.48491e-06, Final residual = 3.41197e-09, No Iterations 1
time step continuity errors : sum local = 2.18532e-07, global = -2.09251e-16, cumulative = 1.01947e-15
rho max/min : 1.225 1.225
DILUPBiCGStab:  Solving for omega, Initial residual = 0.000394802, Final residual = 6.22127e-07, No Iterations 1
DILUPBiCGStab:  Solving for k, Initial residual = 0.0174974, Final residual = 6.35609e-05, No Iterations 1
ExecutionTime = 0.02 s  ClockTime = 0 s

Time = 20

DILUPBiCGStab:  Solving for h, Initial residual = 0.015459, Final residual = 7.53492e-07, No Iterations 1
GAMG:  Solving for p_rgh, Initial residual = 3.69567e-06, Final residual = 4.81237e-11, No Iterations 1
time step continuity errors : sum local = 3.15518e-09, global = -7.88079e-17, cumulative = 9.40664e-16
rho max/min : 1.225 1.225
DILUPBiCGStab:  Solving for omega, Initial residual = 0.000362194, Final residual = 5.89973e-07, No Iterations 1
DILUPBiCGStab:  Solving for k, Initial residual = 0.0168447, Final residual = 6.08664e-05, No Iterations 1
ExecutionTime = 0.02 s  ClockTime = 0 s

Time = 21

DILUPBiCGStab:  Solving for h, Initial residual = 0.0147473, Final residual = 6.93299e-07, No Iterations 1
GAMG:  Solving for p_rgh, Initial residual = 3.07602e-06, Final residual = 5.55822e-10, No Iterations 1
time step continuity errors : sum local = 3.73199e-08, global = 9.80525e-17, cumulative = 1.03872e-15
rho max/min : 1.225 1.225
DILUPBiCGStab:  Solving for omega, Initial residual = 0.000335179, Final residual = 5.65757e-07, No Iterations 1
DILUPBiCGStab:  Solving for k, Initial residual = 0.0162399, Final residual = 5.83445e-05, No Iterations 1
ExecutionTime = 0.03 s  ClockTime = 0 s

Time = 22

DILUPBiCGStab:  Solving for h, Initial residual = 0.0141089, Final residual = 6.40898e-07, No Iterations 1
GAMG:  Solving for p_rgh, Initial residual = 2.4399e-06, Final residual = 2.26609e-11, No Iterations 1
time step continuity errors : sum local = 1.55518e-09, global = 4.53535e-16, cumulative = 1.49225e-15
rho max/min : 1.225 1.225
DILUPBiCGStab:  Solving for omega, Initial residual = 0.000311388, Final residual = 5.47954e-07, No Iterations 1
DILUPBiCGStab:  Solving for k, Initial residual = 0.0156733, Final residual = 5.59615e-05, No Iterations 1
ExecutionTime = 0.03 s  ClockTime = 0 s

Time = 23

DILUPBiCGStab:  Solving for h, Initial residual = 0.0135292, Final residual = 5.94198e-07, No Iterations 1
GAMG:  Solving for p_rgh, Initial residual = 2.03571e-06, Final residual = 4.02378e-10, No Iterations 1
time step continuity errors : sum local = 2.81503e-08, global = -2.03796e-16, cumulative = 1.28846e-15
rho max/min : 1.225 1.225
DILUPBiCGStab:  Solving for omega, Initial residual = 0.000290209, Final residual = 5.33161e-07, No Iterations 1
DILUPBiCGStab:  Solving for k, Initial residual = 0.0151626, Final residual = 5.37424e-05, No Iterations 1
ExecutionTime = 0.03 s  ClockTime = 0 s

Time = 24

DILUPBiCGStab:  Solving for h, Initial residual = 0.0129975, Final residual = 5.51873e-07, No Iterations 1
GAMG:  Solving for p_rgh, Initial residual = 1.77433e-06, Final residual = 4.66793e-10, No Iterations 1
time step continuity errors : sum local = 3.32191e-08, global = 6.85419e-17, cumulative = 1.357e-15
rho max/min : 1.225 1.225
DILUPBiCGStab:  Solving for omega, Initial residual = 0.000271518, Final residual = 5.20141e-07, No Iterations 1
DILUPBiCGStab:  Solving for k, Initial residual = 0.0146839, Final residual = 5.16342e-05, No Iterations 1
ExecutionTime = 0.03 s  ClockTime = 0 s

Time = 25

DILUPBiCGStab:  Solving for h, Initial residual = 0.0125061, Final residual = 5.14374e-07, No Iterations 1
GAMG:  Solving for p_rgh, Initial residual = 1.60416e-06, Final residual = 3.54358e-10, No Iterations 1
time step continuity errors : sum local = 2.5612e-08, global = -2.13452e-18, cumulative = 1.35486e-15
rho max/min : 1.225 1.225
DILUPBiCGStab:  Solving for omega, Initial residual = 0.000255585, Final residual = 5.09701e-07, No Iterations 1
DILUPBiCGStab:  Solving for k, Initial residual = 0.014232, Final residual = 4.96171e-05, No Iterations 1
ExecutionTime = 0.03 s  ClockTime = 0 s

Time = 26

DILUPBiCGStab:  Solving for h, Initial residual = 0.0120489, Final residual = 4.80219e-07, No Iterations 1
GAMG:  Solving for p_rgh, Initial residual = 1.47269e-06, Final residual = 2.46405e-10, No Iterations 1
time step continuity errors : sum local = 1.80654e-08, global = -2.41845e-16, cumulative = 1.11302e-15
rho max/min : 1.225 1.225
DILUPBiCGStab:  Solving for omega, Initial residual = 0.000240775, Final residual = 5.00536e-07, No Iterations 1
DILUPBiCGStab:  Solving for k, Initial residual = 0.0138236, Final residual = 4.77235e-05, No Iterations 1
ExecutionTime = 0.03 s  ClockTime = 0 s

Time = 27

DILUPBiCGStab:  Solving for h, Initial residual = 0.0116211, Final residual = 4.48221e-07, No Iterations 1
GAMG:  Solving for p_rgh, Initial residual = 1.35449e-06, Final residual = 1.96968e-10, No Iterations 1
time step continuity errors : sum local = 1.46321e-08, global = -4.71255e-16, cumulative = 6.41763e-16
rho max/min : 1.225 1.225
DILUPBiCGStab:  Solving for omega, Initial residual = 0.000227091, Final residual = 4.92849e-07, No Iterations 1
DILUPBiCGStab:  Solving for k, Initial residual = 0.0134405, Final residual = 4.59178e-05, No Iterations 1
ExecutionTime = 0.03 s  ClockTime = 0 s

Time = 28

DILUPBiCGStab:  Solving for h, Initial residual = 0.0112194, Final residual = 4.1806e-07, No Iterations 1
GAMG:  Solving for p_rgh, Initial residual = 1.24709e-06, Final residual = 1.84486e-10, No Iterations 1
time step continuity errors : sum local = 1.38719e-08, global = 1.02748e-15, cumulative = 1.66925e-15
rho max/min : 1.225 1.225
DILUPBiCGStab:  Solving for omega, Initial residual = 0.000214438, Final residual = 4.86351e-07, No Iterations 1
DILUPBiCGStab:  Solving for k, Initial residual = 0.0130823, Final residual = 4.41922e-05, No Iterations 1
ExecutionTime = 0.03 s  ClockTime = 0 s

Time = 29

DILUPBiCGStab:  Solving for h, Initial residual = 0.0108407, Final residual = 3.89514e-07, No Iterations 1
GAMG:  Solving for p_rgh, Initial residual = 1.15095e-06, Final residual = 1.77928e-10, No Iterations 1
time step continuity errors : sum local = 1.35284e-08, global = -6.18503e-16, cumulative = 1.05074e-15
rho max/min : 1.225 1.225
DILUPBiCGStab:  Solving for omega, Initial residual = 0.000202594, Final residual = 4.80919e-07, No Iterations 1
DILUPBiCGStab:  Solving for k, Initial residual = 0.0127542, Final residual = 4.25633e-05, No Iterations 1
ExecutionTime = 0.03 s  ClockTime = 0 s

Time = 30

DILUPBiCGStab:  Solving for h, Initial residual = 0.0104825, Final residual = 3.62839e-07, No Iterations 1
GAMG:  Solving for p_rgh, Initial residual = 1.06646e-06, Final residual = 1.66778e-10, No Iterations 1
time step continuity errors : sum local = 1.28102e-08, global = -1.57887e-16, cumulative = 8.92857e-16
rho max/min : 1.225 1.225
DILUPBiCGStab:  Solving for omega, Initial residual = 0.000191728, Final residual = 4.76549e-07, No Iterations 1
DILUPBiCGStab:  Solving for k, Initial residual = 0.0124378, Final residual = 4.09805e-05, No Iterations 1
ExecutionTime = 0.03 s  ClockTime = 0 s

Time = 31

DILUPBiCGStab:  Solving for h, Initial residual = 0.010143, Final residual = 3.37394e-07, No Iterations 1
GAMG:  Solving for p_rgh, Initial residual = 9.92618e-07, Final residual = 1.51581e-10, No Iterations 1
time step continuity errors : sum local = 1.17515e-08, global = -4.93007e-16, cumulative = 3.9985e-16
rho max/min : 1.225 1.225
DILUPBiCGStab:  Solving for omega, Initial residual = 0.000181668, Final residual = 4.73441e-07, No Iterations 1
DILUPBiCGStab:  Solving for k, Initial residual = 0.0121456, Final residual = 3.94751e-05, No Iterations 1
ExecutionTime = 0.04 s  ClockTime = 0 s

Time = 32

DILUPBiCGStab:  Solving for h, Initial residual = 0.00982056, Final residual = 3.13069e-07, No Iterations 1
GAMG:  Solving for p_rgh, Initial residual = 9.28032e-07, Final residual = 1.36577e-10, No Iterations 1
time step continuity errors : sum local = 1.06782e-08, global = -9.45458e-16, cumulative = -5.45608e-16
rho max/min : 1.225 1.225
DILUPBiCGStab:  Solving for omega, Initial residual = 0.000172152, Final residual = 4.7277e-07, No Iterations 1
DILUPBiCGStab:  Solving for k, Initial residual = 0.0118627, Final residual = 3.80179e-05, No Iterations 1
ExecutionTime = 0.04 s  ClockTime = 0 s

Time = 33

DILUPBiCGStab:  Solving for h, Initial residual = 0.0095137, Final residual = 2.8979e-07, No Iterations 1
GAMG:  Solving for p_rgh, Initial residual = 8.72226e-07, Final residual = 1.24064e-10, No Iterations 1
time step continuity errors : sum local = 9.77478e-09, global = -1.63443e-16, cumulative = -7.09052e-16
rho max/min : 1.225 1.225
DILUPBiCGStab:  Solving for omega, Initial residual = 0.000163151, Final residual = 4.73913e-07, No Iterations 1
DILUPBiCGStab:  Solving for k, Initial residual = 0.0115961, Final residual = 3.66145e-05, No Iterations 1
ExecutionTime = 0.04 s  ClockTime = 0 s

Time = 34

DILUPBiCGStab:  Solving for h, Initial residual = 0.00922127, Final residual = 2.6761e-07, No Iterations 1
GAMG:  Solving for p_rgh, Initial residual = 8.23175e-07, Final residual = 1.13721e-10, No Iterations 1
time step continuity errors : sum local = 9.02245e-09, global = -9.65821e-16, cumulative = -1.67487e-15
rho max/min : 1.225 1.225
DILUPBiCGStab:  Solving for omega, Initial residual = 0.000154634, Final residual = 4.75122e-07, No Iterations 1
DILUPBiCGStab:  Solving for k, Initial residual = 0.01134, Final residual = 3.52655e-05, No Iterations 1
ExecutionTime = 0.04 s  ClockTime = 0 s

Time = 35

DILUPBiCGStab:  Solving for h, Initial residual = 0.0089424, Final residual = 2.47468e-07, No Iterations 1
GAMG:  Solving for p_rgh, Initial residual = 7.79455e-07, Final residual = 1.04682e-10, No Iterations 1
time step continuity errors : sum local = 8.35782e-09, global = 2.44962e-16, cumulative = -1.42991e-15
rho max/min : 1.225 1.225
DILUPBiCGStab:  Solving for omega, Initial residual = 0.000146573, Final residual = 4.76053e-07, No Iterations 1
DILUPBiCGStab:  Solving for k, Initial residual = 0.0110965, Final residual = 3.39693e-05, No Iterations 1
ExecutionTime = 0.04 s  ClockTime = 0 s

Time = 36

DILUPBiCGStab:  Solving for h, Initial residual = 0.00867632, Final residual = 2.28516e-07, No Iterations 1
GAMG:  Solving for p_rgh, Initial residual = 7.40237e-07, Final residual = 9.64162e-11, No Iterations 1
time step continuity errors : sum local = 7.74169e-09, global = -5.97226e-16, cumulative = -2.02714e-15
rho max/min : 1.225 1.225
DILUPBiCGStab:  Solving for omega, Initial residual = 0.000138979, Final residual = 4.76518e-07, No Iterations 1
DILUPBiCGStab:  Solving for k, Initial residual = 0.0108667, Final residual = 3.27348e-05, No Iterations 1
ExecutionTime = 0.04 s  ClockTime = 0 s

Time = 37

DILUPBiCGStab:  Solving for h, Initial residual = 0.00842231, Final residual = 2.10524e-07, No Iterations 1
GAMG:  Solving for p_rgh, Initial residual = 7.044e-07, Final residual = 8.87507e-11, No Iterations 1
time step continuity errors : sum local = 7.16249e-09, global = -2.73761e-16, cumulative = -2.3009e-15
rho max/min : 1.225 1.225
DILUPBiCGStab:  Solving for omega, Initial residual = 0.000132178, Final residual = 4.76596e-07, No Iterations 1
DILUPBiCGStab:  Solving for k, Initial residual = 0.0106505, Final residual = 3.15563e-05, No Iterations 1
ExecutionTime = 0.04 s  ClockTime = 0 s

Time = 38

DILUPBiCGStab:  Solving for h, Initial residual = 0.0081798, Final residual = 1.93851e-07, No Iterations 1
GAMG:  Solving for p_rgh, Initial residual = 6.7124e-07, Final residual = 8.14829e-11, No Iterations 1
time step continuity errors : sum local = 6.60579e-09, global = 4.84672e-16, cumulative = -1.81623e-15
rho max/min : 1.225 1.225
DILUPBiCGStab:  Solving for omega, Initial residual = 0.000126239, Final residual = 4.76973e-07, No Iterations 1
DILUPBiCGStab:  Solving for k, Initial residual = 0.010451, Final residual = 3.04398e-05, No Iterations 1
ExecutionTime = 0.04 s  ClockTime = 0 s

Time = 39

DILUPBiCGStab:  Solving for h, Initial residual = 0.00794837, Final residual = 1.78314e-07, No Iterations 1
GAMG:  Solving for p_rgh, Initial residual = 6.40407e-07, Final residual = 7.53276e-11, No Iterations 1
time step continuity errors : sum local = 6.13131e-09, global = -3.58735e-16, cumulative = -2.17496e-15
rho max/min : 1.225 1.225
DILUPBiCGStab:  Solving for omega, Initial residual = 0.000120692, Final residual = 4.76676e-07, No Iterations 1
DILUPBiCGStab:  Solving for k, Initial residual = 0.0102587, Final residual = 2.937e-05, No Iterations 1
ExecutionTime = 0.04 s  ClockTime = 0 s

Time = 40

DILUPBiCGStab:  Solving for h, Initial residual = 0.00772759, Final residual = 1.63722e-07, No Iterations 1
GAMG:  Solving for p_rgh, Initial residual = 6.11502e-07, Final residual = 6.93895e-11, No Iterations 1
time step continuity errors : sum local = 5.66774e-09, global = 1.16179e-16, cumulative = -2.05878e-15
rho max/min : 1.225 1.225
DILUPBiCGStab:  Solving for omega, Initial residual = 0.00011548, Final residual = 4.75172e-07, No Iterations 1
DILUPBiCGStab:  Solving for k, Initial residual = 0.0100721, Final residual = 2.83487e-05, No Iterations 1
ExecutionTime = 0.04 s  ClockTime = 0 s

Time = 41

DILUPBiCGStab:  Solving for h, Initial residual = 0.00751705, Final residual = 1.50428e-07, No Iterations 1
GAMG:  Solving for p_rgh, Initial residual = 5.8421e-07, Final residual = 6.37259e-11, No Iterations 1
time step continuity errors : sum local = 5.22095e-09, global = 3.6646e-16, cumulative = -1.69232e-15
rho max/min : 1.225 1.225
DILUPBiCGStab:  Solving for omega, Initial residual = 0.00011058, Final residual = 4.7221e-07, No Iterations 1
DILUPBiCGStab:  Solving for k, Initial residual = 0.00989107, Final residual = 2.7371e-05, No Iterations 1
ExecutionTime = 0.05 s  ClockTime = 0 s

Time = 42

DILUPBiCGStab:  Solving for h, Initial residual = 0.00731637, Final residual = 1.38251e-07, No Iterations 1
GAMG:  Solving for p_rgh, Initial residual = 5.583e-07, Final residual = 5.85516e-11, No Iterations 1
time step continuity errors : sum local = 4.80944e-09, global = 3.77506e-16, cumulative = -1.31482e-15
rho max/min : 1.225 1.225
DILUPBiCGStab:  Solving for omega, Initial residual = 0.000105981, Final residual = 4.67682e-07, No Iterations 1
DILUPBiCGStab:  Solving for k, Initial residual = 0.00971524, Final residual = 2.64353e-05, No Iterations 1
ExecutionTime = 0.05 s  ClockTime = 0 s

Time = 43

DILUPBiCGStab:  Solving for h, Initial residual = 0.00712526, Final residual = 1.26936e-07, No Iterations 1
GAMG:  Solving for p_rgh, Initial residual = 5.33592e-07, Final residual = 5.38266e-11, No Iterations 1
time step continuity errors : sum local = 4.43092e-09, global = -1.07234e-16, cumulative = -1.42205e-15
rho max/min : 1.225 1.225
DILUPBiCGStab:  Solving for omega, Initial residual = 0.000102144, Final residual = 4.62898e-07, No Iterations 1
DILUPBiCGStab:  Solving for k, Initial residual = 0.00954453, Final residual = 2.55413e-05, No Iterations 1
ExecutionTime = 0.05 s  ClockTime = 0 s

Time = 44

DILUPBiCGStab:  Solving for h, Initial residual = 0.00694335, Final residual = 1.16469e-07, No Iterations 1
GAMG:  Solving for p_rgh, Initial residual = 5.10029e-07, Final residual = 4.96339e-11, No Iterations 1
time step continuity errors : sum local = 4.09295e-09, global = -7.04731e-18, cumulative = -1.4291e-15
rho max/min : 1.225 1.225
DILUPBiCGStab:  Solving for omega, Initial residual = 9.88187e-05, Final residual = 4.57901e-07, No Iterations 1
DILUPBiCGStab:  Solving for k, Initial residual = 0.00937876, Final residual = 2.46841e-05, No Iterations 1
ExecutionTime = 0.05 s  ClockTime = 0 s

Time = 45

DILUPBiCGStab:  Solving for h, Initial residual = 0.0067703, Final residual = 1.06825e-07, No Iterations 1
GAMG:  Solving for p_rgh, Initial residual = 4.87567e-07, Final residual = 4.57126e-11, No Iterations 1
time step continuity errors : sum local = 3.77494e-09, global = -1.8855e-16, cumulative = -1.61765e-15
rho max/min : 1.225 1.225
DILUPBiCGStab:  Solving for omega, Initial residual = 9.62423e-05, Final residual = 4.53233e-07, No Iterations 1
DILUPBiCGStab:  Solving for k, Initial residual = 0.00921781, Final residual = 2.38626e-05, No Iterations 1
ExecutionTime = 0.05 s  ClockTime = 0 s

Time = 46

DILUPBiCGStab:  Solving for h, Initial residual = 0.00660575, Final residual = 9.81369e-08, No Iterations 1
GAMG:  Solving for p_rgh, Initial residual = 4.66137e-07, Final residual = 4.19775e-11, No Iterations 1
time step continuity errors : sum local = 3.47004e-09, global = 7.20893e-16, cumulative = -8.96754e-16
rho max/min : 1.225 1.225
DILUPBiCGStab:  Solving for omega, Initial residual = 9.47655e-05, Final residual = 4.50069e-07, No Iterations 1
DILUPBiCGStab:  Solving for k, Initial residual = 0.0090615, Final residual = 2.30756e-05, No Iterations 1
ExecutionTime = 0.05 s  ClockTime = 0 s

Time = 47

DILUPBiCGStab:  Solving for h, Initial residual = 0.00644937, Final residual = 9.0304e-08, No Iterations 1
GAMG:  Solving for p_rgh, Initial residual = 4.45644e-07, Final residual = 3.85741e-11, No Iterations 1
time step continuity errors : sum local = 3.19102e-09, global = 5.88756e-16, cumulative = -3.07998e-16
rho max/min : 1.225 1.225
DILUPBiCGStab:  Solving for omega, Initial residual = 9.33725e-05, Final residual = 4.46029e-07, No Iterations 1
DILUPBiCGStab:  Solving for k, Initial residual = 0.00890941, Final residual = 2.23227e-05, No Iterations 1
ExecutionTime = 0.05 s  ClockTime = 0 s

Time = 48

DILUPBiCGStab:  Solving for h, Initial residual = 0.00630525, Final residual = 8.31516e-08, No Iterations 1
GAMG:  Solving for p_rgh, Initial residual = 4.26079e-07, Final residual = 3.54863e-11, No Iterations 1
time step continuity errors : sum local = 2.9367e-09, global = 1.71846e-16, cumulative = -1.36152e-16
rho max/min : 1.225 1.225
DILUPBiCGStab:  Solving for omega, Initial residual = 9.27691e-05, Final residual = 4.41977e-07, No Iterations 1
DILUPBiCGStab:  Solving for k, Initial residual = 0.00876124, Final residual = 2.15986e-05, No Iterations 1
ExecutionTime = 0.05 s  ClockTime = 0 s

Time = 49

DILUPBiCGStab:  Solving for h, Initial residual = 0.00621037, Final residual = 7.78356e-08, No Iterations 1
GAMG:  Solving for p_rgh, Initial residual = 4.08242e-07, Final residual = 3.27327e-11, No Iterations 1
time step continuity errors : sum local = 2.70916e-09, global = -1.36135e-16, cumulative = -2.72288e-16
rho max/min : 1.225 1.225
DILUPBiCGStab:  Solving for omega, Initial residual = 9.32318e-05, Final residual = 4.38431e-07, No Iterations 1
DILUPBiCGStab:  Solving for k, Initial residual = 0.00861683, Final residual = 2.08984e-05, No Iterations 1
ExecutionTime = 0.05 s  ClockTime = 0 s

Time = 50

DILUPBiCGStab:  Solving for h, Initial residual = 0.00611862, Final residual = 7.3547e-08, No Iterations 1
GAMG:  Solving for p_rgh, Initial residual = 3.92642e-07, Final residual = 3.02105e-11, No Iterations 1
time step continuity errors : sum local = 2.50004e-09, global = 4.25075e-16, cumulative = 1.52788e-16
rho max/min : 1.225 1.225
DILUPBiCGStab:  Solving for omega, Initial residual = 9.4775e-05, Final residual = 4.38484e-07, No Iterations 1
DILUPBiCGStab:  Solving for k, Initial residual = 0.00847622, Final residual = 2.02231e-05, No Iterations 1
ExecutionTime = 0.05 s  ClockTime = 0 s

Time = 51

DILUPBiCGStab:  Solving for h, Initial residual = 0.00603094, Final residual = 6.97452e-08, No Iterations 1
GAMG:  Solving for p_rgh, Initial residual = 3.79072e-07, Final residual = 2.76012e-11, No Iterations 1
time step continuity errors : sum local = 2.28325e-09, global = -1.01441e-16, cumulative = 5.13468e-17
rho max/min : 1.225 1.225
DILUPBiCGStab:  Solving for omega, Initial residual = 9.75109e-05, Final residual = 4.42675e-07, No Iterations 1
DILUPBiCGStab:  Solving for k, Initial residual = 0.00833868, Final residual = 1.95718e-05, No Iterations 1
ExecutionTime = 0.06 s  ClockTime = 0 s

Time = 52

DILUPBiCGStab:  Solving for h, Initial residual = 0.00596203, Final residual = 6.70195e-08, No Iterations 1
GAMG:  Solving for p_rgh, Initial residual = 3.6642e-07, Final residual = 2.53328e-11, No Iterations 1
time step continuity errors : sum local = 2.09445e-09, global = -3.44166e-16, cumulative = -2.9282e-16
rho max/min : 1.225 1.225
DILUPBiCGStab:  Solving for omega, Initial residual = 0.000100155, Final residual = 4.46076e-07, No Iterations 1
DILUPBiCGStab:  Solving for k, Initial residual = 0.00820482, Final residual = 1.89466e-05, No Iterations 1
ExecutionTime = 0.06 s  ClockTime = 0 s

Time = 53

DILUPBiCGStab:  Solving for h, Initial residual = 0.00592591, Final residual = 6.49799e-08, No Iterations 1
GAMG:  Solving for p_rgh, Initial residual = 3.53838e-07, Final residual = 2.34815e-11, No Iterations 1
time step continuity errors : sum local = 1.93985e-09, global = -1.17297e-16, cumulative = -4.10117e-16
rho max/min : 1.225 1.225
DILUPBiCGStab:  Solving for omega, Initial residual = 0.000102693, Final residual = 4.48532e-07, No Iterations 1
DILUPBiCGStab:  Solving for k, Initial residual = 0.00807455, Final residual = 1.83473e-05, No Iterations 1
ExecutionTime = 0.06 s  ClockTime = 0 s

Time = 54

DILUPBiCGStab:  Solving for h, Initial residual = 0.00589118, Final residual = 6.32714e-08, No Iterations 1
GAMG:  Solving for p_rgh, Initial residual = 3.41068e-07, Final residual = 2.22006e-11, No Iterations 1
time step continuity errors : sum local = 1.83238e-09, global = 2.89685e-17, cumulative = -3.81148e-16
rho max/min : 1.225 1.225
DILUPBiCGStab:  Solving for omega, Initial residual = 0.000105117, Final residual = 4.50062e-07, No Iterations 1
DILUPBiCGStab:  Solving for k, Initial residual = 0.0079475, Final residual = 1.77728e-05, No Iterations 1
ExecutionTime = 0.06 s  ClockTime = 0 s

Time = 55

DILUPBiCGStab:  Solving for h, Initial residual = 0.00585251, Final residual = 6.21688e-08, No Iterations 1
GAMG:  Solving for p_rgh, Initial residual = 3.28052e-07, Final residual = 2.0859e-11, No Iterations 1
time step continuity errors : sum local = 1.71981e-09, global = -1.37558e-17, cumulative = -3.94904e-16
rho max/min : 1.225 1.225
DILUPBiCGStab:  Solving for omega, Initial residual = 0.000107423, Final residual = 4.50734e-07, No Iterations 1
DILUPBiCGStab:  Solving for k, Initial residual = 0.00782293, Final residual = 1.7223e-05, No Iterations 1
ExecutionTime = 0.06 s  ClockTime = 0 s

Time = 56

DILUPBiCGStab:  Solving for h, Initial residual = 0.00581033, Final residual = 6.10575e-08, No Iterations 1
GAMG:  Solving for p_rgh, Initial residual = 3.14958e-07, Final residual = 1.95333e-11, No Iterations 1
time step continuity errors : sum local = 1.6085e-09, global = 2.36085e-16, cumulative = -1.58819e-16
rho max/min : 1.225 1.225
DILUPBiCGStab:  Solving for omega, Initial residual = 0.000109606, Final residual = 4.50714e-07, No Iterations 1
DILUPBiCGStab:  Solving for k, Initial residual = 0.00770167, Final residual = 1.66995e-05, No Iterations 1
ExecutionTime = 0.06 s  ClockTime = 0 s

Time = 57

DILUPBiCGStab:  Solving for h, Initial residual = 0.00576505, Final residual = 5.99432e-08, No Iterations 1
GAMG:  Solving for p_rgh, Initial residual = 3.01944e-07, Final residual = 1.82662e-11, No Iterations 1
time step continuity errors : sum local = 1.5021e-09, global = 3.99122e-17, cumulative = -1.18907e-16
rho max/min : 1.225 1.225
DILUPBiCGStab:  Solving for omega, Initial residual = 0.000111665, Final residual = 4.50102e-07, No Iterations 1
DILUPBiCGStab:  Solving for k, Initial residual = 0.00758334, Final residual = 1.62007e-05, No Iterations 1
ExecutionTime = 0.06 s  ClockTime = 0 s

Time = 58

DILUPBiCGStab:  Solving for h, Initial residual = 0.00571706, Final residual = 5.8873e-08, No Iterations 1
GAMG:  Solving for p_rgh, Initial residual = 2.89129e-07, Final residual = 1.702e-11, No Iterations 1
time step continuity errors : sum local = 1.39752e-09, global = 8.7014e-16, cumulative = 7.51233e-16
rho max/min : 1.225 1.225
DILUPBiCGStab:  Solving for omega, Initial residual = 0.000113599, Final residual = 4.48934e-07, No Iterations 1
DILUPBiCGStab:  Solving for k, Initial residual = 0.00746716, Final residual = 1.57222e-05, No Iterations 1
ExecutionTime = 0.06 s  ClockTime = 0 s

Time = 59

DILUPBiCGStab:  Solving for h, Initial residual = 0.00566673, Final residual = 5.78058e-08, No Iterations 1
GAMG:  Solving for p_rgh, Initial residual = 2.76566e-07, Final residual = 1.57588e-11, No Iterations 1
time step continuity errors : sum local = 1.29187e-09, global = -4.16503e-16, cumulative = 3.3473e-16
rho max/min : 1.225 1.225
DILUPBiCGStab:  Solving for omega, Initial residual = 0.000115435, Final residual = 4.47391e-07, No Iterations 1
DILUPBiCGStab:  Solving for k, Initial residual = 0.00735304, Final residual = 1.5262e-05, No Iterations 1
ExecutionTime = 0.06 s  ClockTime = 0 s

Time = 60

DILUPBiCGStab:  Solving for h, Initial residual = 0.0056144, Final residual = 5.67352e-08, No Iterations 1
GAMG:  Solving for p_rgh, Initial residual = 2.64376e-07, Final residual = 1.48398e-11, No Iterations 1
time step continuity errors : sum local = 1.21438e-09, global = 1.26513e-16, cumulative = 4.61243e-16
rho max/min : 1.225 1.225
DILUPBiCGStab:  Solving for omega, Initial residual = 0.000117173, Final residual = 4.4544e-07, No Iterations 1
DILUPBiCGStab:  Solving for k, Initial residual = 0.00724181, Final residual = 1.48213e-05, No Iterations 1
ExecutionTime = 0.06 s  ClockTime = 0 s

Time = 61

DILUPBiCGStab:  Solving for h, Initial residual = 0.00556039, Final residual = 5.56676e-08, No Iterations 1
GAMG:  Solving for p_rgh, Initial residual = 2.52484e-07, Final residual = 1.38672e-11, No Iterations 1
time step continuity errors : sum local = 1.13268e-09, global = -2.51941e-16, cumulative = 2.09302e-16
rho max/min : 1.225 1.225
DILUPBiCGStab:  Solving for omega, Initial residual = 0.000118788, Final residual = 4.43132e-07, No Iterations 1
DILUPBiCGStab:  Solving for k, Initial residual = 0.00713278, Final residual = 1.43977e-05, No Iterations 1
ExecutionTime = 0.07 s  ClockTime = 0 s

Time = 62

DILUPBiCGStab:  Solving for h, Initial residual = 0.00550501, Final residual = 5.46085e-08, No Iterations 1
GAMG:  Solving for p_rgh, Initial residual = 2.40859e-07, Final residual = 1.26653e-11, No Iterations 1
time step continuity errors : sum local = 1.03242e-09, global = 4.87891e-17, cumulative = 2.58091e-16
rho max/min : 1.225 1.225
DILUPBiCGStab:  Solving for omega, Initial residual = 0.000120281, Final residual = 4.40523e-07, No Iterations 1
DILUPBiCGStab:  Solving for k, Initial residual = 0.00702567, Final residual = 1.39903e-05, No Iterations 1
ExecutionTime = 0.07 s  ClockTime = 0 s

Time = 63

DILUPBiCGStab:  Solving for h, Initial residual = 0.00544853, Final residual = 5.35627e-08, No Iterations 1
GAMG:  Solving for p_rgh, Initial residual = 2.29699e-07, Final residual = 1.21421e-11, No Iterations 1
time step continuity errors : sum local = 9.87734e-10, global = -8.14134e-16, cumulative = -5.56044e-16
rho max/min : 1.225 1.225
DILUPBiCGStab:  Solving for omega, Initial residual = 0.000121654, Final residual = 4.37659e-07, No Iterations 1
DILUPBiCGStab:  Solving for k, Initial residual = 0.00692089, Final residual = 1.3599e-05, No Iterations 1
ExecutionTime = 0.07 s  ClockTime = 0 s

Time = 64

DILUPBiCGStab:  Solving for h, Initial residual = 0.00539121, Final residual = 5.2534e-08, No Iterations 1
GAMG:  Solving for p_rgh, Initial residual = 2.18776e-07, Final residual = 1.14247e-11, No Iterations 1
time step continuity errors : sum local = 9.2747e-10, global = -3.43557e-16, cumulative = -8.996e-16
rho max/min : 1.225 1.225
DILUPBiCGStab:  Solving for omega, Initial residual = 0.000122909, Final residual = 4.3458e-07, No Iterations 1
DILUPBiCGStab:  Solving for k, Initial residual = 0.00681855, Final residual = 1.32235e-05, No Iterations 1
ExecutionTime = 0.07 s  ClockTime = 0 s

Time = 65

DILUPBiCGStab:  Solving for h, Initial residual = 0.00533327, Final residual = 5.15256e-08, No Iterations 1
GAMG:  Solving for p_rgh, Initial residual = 2.08198e-07, Final residual = 1.05936e-11, No Iterations 1
time step continuity errors : sum local = 8.58094e-10, global = -4.80776e-17, cumulative = -9.47678e-16
rho max/min : 1.225 1.225
DILUPBiCGStab:  Solving for omega, Initial residual = 0.000124051, Final residual = 4.31318e-07, No Iterations 1
DILUPBiCGStab:  Solving for k, Initial residual = 0.00671851, Final residual = 1.28627e-05, No Iterations 1
ExecutionTime = 0.07 s  ClockTime = 0 s

Time = 66

DILUPBiCGStab:  Solving for h, Initial residual = 0.00527491, Final residual = 5.05402e-08, No Iterations 1
GAMG:  Solving for p_rgh, Initial residual = 1.9773e-07, Final residual = 8.67119e-12, No Iterations 1
time step continuity errors : sum local = 7.00774e-10, global = -3.63547e-16, cumulative = -1.31122e-15
rho max/min : 1.225 1.225
DILUPBiCGStab:  Solving for omega, Initial residual = 0.000125082, Final residual = 4.27899e-07, No Iterations 1
DILUPBiCGStab:  Solving for k, Initial residual = 0.00662066, Final residual = 1.25159e-05, No Iterations 1
ExecutionTime = 0.07 s  ClockTime = 0 s

Time = 67

DILUPBiCGStab:  Solving for h, Initial residual = 0.00521633, Final residual = 4.95799e-08, No Iterations 1
GAMG:  Solving for p_rgh, Initial residual = 1.88097e-07, Final residual = 9.62581e-12, No Iterations 1
time step continuity errors : sum local = 7.76084e-10, global = -6.04375e-16, cumulative = -1.9156e-15
rho max/min : 1.225 1.225
DILUPBiCGStab:  Solving for omega, Initial residual = 0.000126005, Final residual = 4.24345e-07, No Iterations 1
DILUPBiCGStab:  Solving for k, Initial residual = 0.00652489, Final residual = 1.21822e-05, No Iterations 1
ExecutionTime = 0.07 s  ClockTime = 0 s

Time = 68

DILUPBiCGStab:  Solving for h, Initial residual = 0.00515769, Final residual = 4.87042e-08, No Iterations 1
GAMG:  Solving for p_rgh, Initial residual = 1.78601e-07, Final residual = 9.26968e-12, No Iterations 1
time step continuity errors : sum local = 7.45599e-10, global = 3.80826e-17, cumulative = -1.87752e-15
rho max/min : 1.225 1.225
DILUPBiCGStab:  Solving for omega, Initial residual = 0.000126825, Final residual = 4.20674e-07, No Iterations 1
DILUPBiCGStab:  Solving for k, Initial residual = 0.00643111, Final residual = 1.18609e-05, No Iterations 1
ExecutionTime = 0.07 s  ClockTime = 0 s

Time = 69

DILUPBiCGStab:  Solving for h, Initial residual = 0.00509915, Final residual = 4.78731e-08, No Iterations 1
GAMG:  Solving for p_rgh, Initial residual = 1.6934e-07, Final residual = 8.37543e-12, No Iterations 1
time step continuity errors : sum local = 6.72029e-10, global = 3.82486e-16, cumulative = -1.49503e-15
rho max/min : 1.225 1.225
DILUPBiCGStab:  Solving for omega, Initial residual = 0.000127544, Final residual = 4.16903e-07, No Iterations 1
DILUPBiCGStab:  Solving for k, Initial residual = 0.0063392, Final residual = 1.15512e-05, No Iterations 1
ExecutionTime = 0.07 s  ClockTime = 0 s

Time = 70

DILUPBiCGStab:  Solving for h, Initial residual = 0.00504082, Final residual = 4.70605e-08, No Iterations 1
GAMG:  Solving for p_rgh, Initial residual = 1.60392e-07, Final residual = 7.57367e-12, No Iterations 1
time step continuity errors : sum local = 6.0616e-10, global = 3.17163e-16, cumulative = -1.17787e-15
rho max/min : 1.225 1.225
DILUPBiCGStab:  Solving for omega, Initial residual = 0.000128166, Final residual = 4.13043e-07, No Iterations 1
DILUPBiCGStab:  Solving for k, Initial residual = 0.00624908, Final residual = 1.12525e-05, No Iterations 1
ExecutionTime = 0.07 s  ClockTime = 0 s

Time = 71

DILUPBiCGStab:  Solving for h, Initial residual = 0.00498283, Final residual = 4.62681e-08, No Iterations 1
GAMG:  Solving for p_rgh, Initial residual = 1.51783e-07, Final residual = 7.0145e-12, No Iterations 1
time step continuity errors : sum local = 5.6e-10, global = -1.27258e-16, cumulative = -1.30513e-15
rho max/min : 1.225 1.225
DILUPBiCGStab:  Solving for omega, Initial residual = 0.000128696, Final residual = 4.09138e-07, No Iterations 1
DILUPBiCGStab:  Solving for k, Initial residual = 0.00616065, Final residual = 1.09641e-05, No Iterations 1
ExecutionTime = 0.08 s  ClockTime = 0 s

Time = 72

DILUPBiCGStab:  Solving for h, Initial residual = 0.00492526, Final residual = 4.54971e-08, No Iterations 1
GAMG:  Solving for p_rgh, Initial residual = 1.43521e-07, Final residual = 6.59892e-12, No Iterations 1
time step continuity errors : sum local = 5.25488e-10, global = -4.03899e-16, cumulative = -1.70902e-15
rho max/min : 1.225 1.225
DILUPBiCGStab:  Solving for omega, Initial residual = 0.000129136, Final residual = 4.05182e-07, No Iterations 1
DILUPBiCGStab:  Solving for k, Initial residual = 0.00607382, Final residual = 1.06867e-05, No Iterations 1
ExecutionTime = 0.08 s  ClockTime = 0 s

Time = 73

DILUPBiCGStab:  Solving for h, Initial residual = 0.00486822, Final residual = 4.47488e-08, No Iterations 1
GAMG:  Solving for p_rgh, Initial residual = 1.3559e-07, Final residual = 6.2102e-12, No Iterations 1
time step continuity errors : sum local = 4.93197e-10, global = 7.93365e-16, cumulative = -9.1566e-16
rho max/min : 1.225 1.225
DILUPBiCGStab:  Solving for omega, Initial residual = 0.000129491, Final residual = 4.01164e-07, No Iterations 1
DILUPBiCGStab:  Solving for k, Initial residual = 0.00598852, Final residual = 1.0419e-05, No Iterations 1
ExecutionTime = 0.08 s  ClockTime = 0 s

Time = 74

DILUPBiCGStab:  Solving for h, Initial residual = 0.00481177, Final residual = 4.40238e-08, No Iterations 1
GAMG:  Solving for p_rgh, Initial residual = 1.27986e-07, Final residual = 5.8373e-12, No Iterations 1
time step continuity errors : sum local = 4.62373e-10, global = 1.03135e-16, cumulative = -8.12525e-16
rho max/min : 1.225 1.225
DILUPBiCGStab:  Solving for omega, Initial residual = 0.000129763, Final residual = 3.97091e-07, No Iterations 1
DILUPBiCGStab:  Solving for k, Initial residual = 0.00590467, Final residual = 1.01596e-05, No Iterations 1
ExecutionTime = 0.08 s  ClockTime = 0 s

Time = 75

DILUPBiCGStab:  Solving for h, Initial residual = 0.00475598, Final residual = 4.33227e-08, No Iterations 1
GAMG:  Solving for p_rgh, Initial residual = 1.20685e-07, Final residual = 5.48709e-12, No Iterations 1
time step continuity errors : sum local = 4.33466e-10, global = -5.63785e-16, cumulative = -1.37631e-15
rho max/min : 1.225 1.225
DILUPBiCGStab:  Solving for omega, Initial residual = 0.000129956, Final residual = 3.92986e-07, No Iterations 1
DILUPBiCGStab:  Solving for k, Initial residual = 0.0058222, Final residual = 9.90977e-06, No Iterations 1
ExecutionTime = 0.08 s  ClockTime = 0 s

Time = 76

DILUPBiCGStab:  Solving for h, Initial residual = 0.0047009, Final residual = 4.26459e-08, No Iterations 1
GAMG:  Solving for p_rgh, Initial residual = 1.13727e-07, Final residual = 5.10078e-12, No Iterations 1
time step continuity errors : sum local = 4.01876e-10, global = 5.67004e-16, cumulative = -8.09306e-16
rho max/min : 1.225 1.225
DILUPBiCGStab:  Solving for omega, Initial residual = 0.000130075, Final residual = 3.88845e-07, No Iterations 1
DILUPBiCGStab:  Solving for k, Initial residual = 0.00574102, Final residual = 9.66723e-06, No Iterations 1
ExecutionTime = 0.08 s  ClockTime = 0 s

Time = 77

DILUPBiCGStab:  Solving for h, Initial residual = 0.00464658, Final residual = 4.19934e-08, No Iterations 1
GAMG:  Solving for p_rgh, Initial residual = 1.07066e-07, Final residual = 4.78047e-12, No Iterations 1
time step continuity errors : sum local = 3.75607e-10, global = 2.55939e-16, cumulative = -5.53367e-16
rho max/min : 1.225 1.225
DILUPBiCGStab:  Solving for omega, Initial residual = 0.000130121, Final residual = 3.84664e-07, No Iterations 1
DILUPBiCGStab:  Solving for k, Initial residual = 0.00566109, Final residual = 9.43152e-06, No Iterations 1
ExecutionTime = 0.08 s  ClockTime = 0 s

Time = 78

DILUPBiCGStab:  Solving for h, Initial residual = 0.00459304, Final residual = 4.13651e-08, No Iterations 1
GAMG:  Solving for p_rgh, Initial residual = 1.00703e-07, Final residual = 4.49375e-12, No Iterations 1
time step continuity errors : sum local = 3.52126e-10, global = -5.27363e-16, cumulative = -1.08073e-15
rho max/min : 1.225 1.225
DILUPBiCGStab:  Solving for omega, Initial residual = 0.0001301, Final residual = 3.80446e-07, No Iterations 1
DILUPBiCGStab:  Solving for k, Initial residual = 0.00558232, Final residual = 9.20222e-06, No Iterations 1
ExecutionTime = 0.08 s  ClockTime = 0 s

Time = 79

DILUPBiCGStab:  Solving for h, Initial residual = 0.00454033, Final residual = 4.07609e-08, No Iterations 1
GAMG:  Solving for p_rgh, Initial residual = 9.3981e-08, Final residual = 9.3981e-08, No Iterations 0
time step continuity errors : sum local = 3.69759e-06, global = -5.64531e-16, cumulative = -1.64526e-15
rho max/min : 1.225 1.225
DILUPBiCGStab:  Solving for omega, Initial residual = 0.000130012, Final residual = 3.762e-07, No Iterations 1
DILUPBiCGStab:  Solving for k, Initial residual = 0.00550462, Final residual = 8.97877e-06, No Iterations 1
ExecutionTime = 0.08 s  ClockTime = 0 s

Time = 80

DILUPBiCGStab:  Solving for h, Initial residual = 0.00448846, Final residual = 4.018e-08, No Iterations 1
GAMG:  Solving for p_rgh, Initial residual = 1.87281e-07, Final residual = 3.69073e-12, No Iterations 1
time step continuity errors : sum local = 2.84536e-10, global = -2.48553e-16, cumulative = -1.89381e-15
rho max/min : 1.225 1.225
DILUPBiCGStab:  Solving for omega, Initial residual = 0.000129866, Final residual = 3.71924e-07, No Iterations 1
DILUPBiCGStab:  Solving for k, Initial residual = 0.00542805, Final residual = 8.76114e-06, No Iterations 1
ExecutionTime = 0.08 s  ClockTime = 0 s

Time = 81

DILUPBiCGStab:  Solving for h, Initial residual = 0.00443746, Final residual = 3.96237e-08, No Iterations 1
GAMG:  Solving for p_rgh, Initial residual = 1.11209e-07, Final residual = 1.00104e-11, No Iterations 1
time step continuity errors : sum local = 7.78454e-10, global = 1.23328e-16, cumulative = -1.77049e-15
rho max/min : 1.225 1.225
DILUPBiCGStab:  Solving for omega, Initial residual = 0.000129658, Final residual = 3.67616e-07, No Iterations 1
DILUPBiCGStab:  Solving for k, Initial residual = 0.00535249, Final residual = 8.54883e-06, No Iterations 1
ExecutionTime = 0.09 s  ClockTime = 0 s

Time = 82

DILUPBiCGStab:  Solving for h, Initial residual = 0.00438733, Final residual = 3.90899e-08, No Iterations 1
GAMG:  Solving for p_rgh, Initial residual = 7.53626e-08, Final residual = 7.53626e-08, No Iterations 0
time step continuity errors : sum local = 2.94165e-06, global = 2.81655e-16, cumulative = -1.48883e-15
rho max/min : 1.225 1.225
DILUPBiCGStab:  Solving for omega, Initial residual = 0.000129392, Final residual = 3.6329e-07, No Iterations 1
DILUPBiCGStab:  Solving for k, Initial residual = 0.00527782, Final residual = 8.3413e-06, No Iterations 1
ExecutionTime = 0.09 s  ClockTime = 0 s

Time = 83

DILUPBiCGStab:  Solving for h, Initial residual = 0.00433808, Final residual = 3.85783e-08, No Iterations 1
GAMG:  Solving for p_rgh, Initial residual = 1.41169e-07, Final residual = 1.61139e-11, No Iterations 1
time step continuity errors : sum local = 1.24555e-09, global = 2.6197e-16, cumulative = -1.22686e-15
rho max/min : 1.225 1.225
DILUPBiCGStab:  Solving for omega, Initial residual = 0.000129077, Final residual = 3.58948e-07, No Iterations 1
DILUPBiCGStab:  Solving for k, Initial residual = 0.00520412, Final residual = 8.13855e-06, No Iterations 1
ExecutionTime = 0.09 s  ClockTime = 0 s

Time = 84

DILUPBiCGStab:  Solving for h, Initial residual = 0.00428982, Final residual = 3.80902e-08, No Iterations 1
GAMG:  Solving for p_rgh, Initial residual = 8.12824e-08, Final residual = 8.12824e-08, No Iterations 0
time step continuity errors : sum local = 3.15504e-06, global = 1.02322e-17, cumulative = -1.21663e-15
rho max/min : 1.225 1.225
DILUPBiCGStab:  Solving for omega, Initial residual = 0.000128709, Final residual = 3.5459e-07, No Iterations 1
DILUPBiCGStab:  Solving for k, Initial residual = 0.00513121, Final residual = 7.94001e-06, No Iterations 1
ExecutionTime = 0.09 s  ClockTime = 0 s

Time = 85

DILUPBiCGStab:  Solving for h, Initial residual = 0.00424388, Final residual = 3.76262e-08, No Iterations 1
GAMG:  Solving for p_rgh, Initial residual = 1.4133e-07, Final residual = 3.36348e-12, No Iterations 1
time step continuity errors : sum local = 2.58594e-10, global = -4.95514e-16, cumulative = -1.71214e-15
rho max/min : 1.225 1.225
DILUPBiCGStab:  Solving for omega, Initial residual = 0.000128296, Final residual = 3.50223e-07, No Iterations 1
DILUPBiCGStab:  Solving for k, Initial residual = 0.00505919, Final residual = 7.74569e-06, No Iterations 1
ExecutionTime = 0.09 s  ClockTime = 0 s

Time = 86

DILUPBiCGStab:  Solving for h, Initial residual = 0.00419866, Final residual = 3.71842e-08, No Iterations 1
GAMG:  Solving for p_rgh, Initial residual = 7.25975e-08, Final residual = 7.25975e-08, No Iterations 0
time step continuity errors : sum local = 2.80272e-06, global = -1.95868e-16, cumulative = -1.90801e-15
rho max/min : 1.225 1.225
DILUPBiCGStab:  Solving for omega, Initial residual = 0.000127836, Final residual = 3.45849e-07, No Iterations 1
DILUPBiCGStab:  Solving for k, Initial residual = 0.00498789, Final residual = 7.55509e-06, No Iterations 1
ExecutionTime = 0.09 s  ClockTime = 0 s

Time = 87

DILUPBiCGStab:  Solving for h, Initial residual = 0.00415409, Final residual = 3.67609e-08, No Iterations 1
GAMG:  Solving for p_rgh, Initial residual = 1.21179e-07, Final residual = 4.79152e-12, No Iterations 1
time step continuity errors : sum local = 3.66367e-10, global = 3.91058e-16, cumulative = -1.51695e-15
rho max/min : 1.225 1.225
DILUPBiCGStab:  Solving for omega, Initial residual = 0.000127337, Final residual = 3.41473e-07, No Iterations 1
DILUPBiCGStab:  Solving for k, Initial residual = 0.00491739, Final residual = 7.36818e-06, No Iterations 1
ExecutionTime = 0.09 s  ClockTime = 0 s

Time = 88

DILUPBiCGStab:  Solving for h, Initial residual = 0.00411017, Final residual = 3.63572e-08, No Iterations 1
GAMG:  Solving for p_rgh, Initial residual = 6.03589e-08, Final residual = 6.03589e-08, No Iterations 0
time step continuity errors : sum local = 2.31763e-06, global = 9.01243e-18, cumulative = -1.50794e-15
rho max/min : 1.225 1.225
DILUPBiCGStab:  Solving for omega, Initial residual = 0.000126796, Final residual = 3.37101e-07, No Iterations 1
DILUPBiCGStab:  Solving for k, Initial residual = 0.00484753, Final residual = 7.18457e-06, No Iterations 1
ExecutionTime = 0.09 s  ClockTime = 0 s

Time = 89

DILUPBiCGStab:  Solving for h, Initial residual = 0.00406691, Final residual = 3.59712e-08, No Iterations 1
GAMG:  Solving for p_rgh, Initial residual = 1.00436e-07, Final residual = 7.19892e-12, No Iterations 1
time step continuity errors : sum local = 5.47482e-10, global = 7.49455e-17, cumulative = -1.43299e-15
rho max/min : 1.225 1.225
DILUPBiCGStab:  Solving for omega, Initial residual = 0.00012622, Final residual = 3.32737e-07, No Iterations 1
DILUPBiCGStab:  Solving for k, Initial residual = 0.0047784, Final residual = 7.00424e-06, No Iterations 1
ExecutionTime = 0.09 s  ClockTime = 0 s

Time = 90

DILUPBiCGStab:  Solving for h, Initial residual = 0.00402432, Final residual = 3.56035e-08, No Iterations 1
GAMG:  Solving for p_rgh, Initial residual = 5.01611e-08, Final residual = 5.01611e-08, No Iterations 0
time step continuity errors : sum local = 1.91559e-06, global = 1.97393e-16, cumulative = -1.2356e-15
rho max/min : 1.225 1.225
DILUPBiCGStab:  Solving for omega, Initial residual = 0.000125609, Final residual = 3.28387e-07, No Iterations 1
DILUPBiCGStab:  Solving for k, Initial residual = 0.00470986, Final residual = 6.82688e-06, No Iterations 1
ExecutionTime = 0.09 s  ClockTime = 0 s

Time = 91

DILUPBiCGStab:  Solving for h, Initial residual = 0.00398242, Final residual = 3.52525e-08, No Iterations 1
GAMG:  Solving for p_rgh, Initial residual = 8.50392e-08, Final residual = 8.50392e-08, No Iterations 0
time step continuity errors : sum local = 3.23822e-06, global = 1.95563e-16, cumulative = -1.04004e-15
rho max/min : 1.225 1.225
DILUPBiCGStab:  Solving for omega, Initial residual = 0.000124967, Final residual = 3.2406e-07, No Iterations 1
DILUPBiCGStab:  Solving for k, Initial residual = 0.00464193, Final residual = 6.65273e-06, No Iterations 1
ExecutionTime = 0.1 s  ClockTime = 0 s

Time = 92

DILUPBiCGStab:  Solving for h, Initial residual = 0.0039412, Final residual = 3.49182e-08, No Iterations 1
GAMG:  Solving for p_rgh, Initial residual = 1.3327e-07, Final residual = 1.14959e-12, No Iterations 1
time step continuity errors : sum local = 8.43958e-11, global = -5.72594e-17, cumulative = -1.0973e-15
rho max/min : 1.225 1.225
DILUPBiCGStab:  Solving for omega, Initial residual = 0.000124297, Final residual = 3.19759e-07, No Iterations 1
DILUPBiCGStab:  Solving for k, Initial residual = 0.00457464, Final residual = 6.48242e-06, No Iterations 1
ExecutionTime = 0.1 s  ClockTime = 0 s

Time = 93

DILUPBiCGStab:  Solving for h, Initial residual = 0.00390066, Final residual = 3.46004e-08, No Iterations 1
GAMG:  Solving for p_rgh, Initial residual = 5.29653e-08, Final residual = 5.29653e-08, No Iterations 0
time step continuity errors : sum local = 2.007e-06, global = 1.56125e-16, cumulative = -9.41172e-16
rho max/min : 1.225 1.225
DILUPBiCGStab:  Solving for omega, Initial residual = 0.000123599, Final residual = 3.15487e-07, No Iterations 1
DILUPBiCGStab:  Solving for k, Initial residual = 0.00450788, Final residual = 6.3146e-06, No Iterations 1
ExecutionTime = 0.1 s  ClockTime = 0 s

Time = 94

DILUPBiCGStab:  Solving for h, Initial residual = 0.00386081, Final residual = 3.42977e-08, No Iterations 1
GAMG:  Solving for p_rgh, Initial residual = 7.81621e-08, Final residual = 7.81621e-08, No Iterations 0
time step continuity errors : sum local = 2.95291e-06, global = 1.28207e-16, cumulative = -8.12966e-16
rho max/min : 1.225 1.225
DILUPBiCGStab:  Solving for omega, Initial residual = 0.000122875, Final residual = 3.11256e-07, No Iterations 1
DILUPBiCGStab:  Solving for k, Initial residual = 0.00444166, Final residual = 6.14919e-06, No Iterations 1
ExecutionTime = 0.1 s  ClockTime = 0 s

Time = 95

DILUPBiCGStab:  Solving for h, Initial residual = 0.00382165, Final residual = 3.401e-08, No Iterations 1
GAMG:  Solving for p_rgh, Initial residual = 1.1414e-07, Final residual = 1.44418e-11, No Iterations 1
time step continuity errors : sum local = 1.08071e-09, global = 5.20078e-17, cumulative = -7.60958e-16
rho max/min : 1.225 1.225
DILUPBiCGStab:  Solving for omega, Initial residual = 0.000122132, Final residual = 3.07071e-07, No Iterations 1
DILUPBiCGStab:  Solving for k, Initial residual = 0.00437601, Final residual = 5.98625e-06, No Iterations 1
ExecutionTime = 0.1 s  ClockTime = 0 s

Time = 96

DILUPBiCGStab:  Solving for h, Initial residual = 0.00378316, Final residual = 3.3737e-08, No Iterations 1
GAMG:  Solving for p_rgh, Initial residual = 4.09915e-08, Final residual = 4.09915e-08, No Iterations 0
time step continuity errors : sum local = 1.5412e-06, global = 4.00138e-17, cumulative = -7.20944e-16
rho max/min : 1.225 1.225
DILUPBiCGStab:  Solving for omega, Initial residual = 0.000121366, Final residual = 3.02935e-07, No Iterations 1
DILUPBiCGStab:  Solving for k, Initial residual = 0.00431084, Final residual = 5.82627e-06, No Iterations 1
ExecutionTime = 0.1 s  ClockTime = 0 s

Time = 97

DILUPBiCGStab:  Solving for h, Initial residual = 0.00374535, Final residual = 3.34775e-08, No Iterations 1
GAMG:  Solving for p_rgh, Initial residual = 5.81775e-08, Final residual = 5.81775e-08, No Iterations 0
time step continuity errors : sum local = 2.18107e-06, global = -9.9645e-17, cumulative = -8.20589e-16
rho max/min : 1.225 1.225
DILUPBiCGStab:  Solving for omega, Initial residual = 0.000120581, Final residual = 2.98857e-07, No Iterations 1
DILUPBiCGStab:  Solving for k, Initial residual = 0.00424615, Final residual = 5.66889e-06, No Iterations 1
ExecutionTime = 0.1 s  ClockTime = 0 s

Time = 98

DILUPBiCGStab:  Solving for h, Initial residual = 0.00370821, Final residual = 3.32314e-08, No Iterations 1
GAMG:  Solving for p_rgh, Initial residual = 8.49838e-08, Final residual = 8.49838e-08, No Iterations 0
time step continuity errors : sum local = 3.177e-06, global = -6.74237e-18, cumulative = -8.27331e-16
rho max/min : 1.225 1.225
DILUPBiCGStab:  Solving for omega, Initial residual = 0.000119782, Final residual = 2.94846e-07, No Iterations 1
DILUPBiCGStab:  Solving for k, Initial residual = 0.00418194, Final residual = 5.51364e-06, No Iterations 1
ExecutionTime = 0.1 s  ClockTime = 0 s

Time = 99

DILUPBiCGStab:  Solving for h, Initial residual = 0.00367172, Final residual = 3.29981e-08, No Iterations 1
GAMG:  Solving for p_rgh, Initial residual = 1.20013e-07, Final residual = 1.37028e-12, No Iterations 1
time step continuity errors : sum local = 1.01469e-10, global = -1.48061e-17, cumulative = -8.42137e-16
rho max/min : 1.225 1.225
DILUPBiCGStab:  Solving for omega, Initial residual = 0.000118968, Final residual = 2.90898e-07, No Iterations 1
DILUPBiCGStab:  Solving for k, Initial residual = 0.00411826, Final residual = 5.36061e-06, No Iterations 1
ExecutionTime = 0.1 s  ClockTime = 0 s

Time = 100

DILUPBiCGStab:  Solving for h, Initial residual = 0.00363589, Final residual = 3.27775e-08, No Iterations 1
GAMG:  Solving for p_rgh, Initial residual = 3.7087e-08, Final residual = 3.7087e-08, No Iterations 0
time step continuity errors : sum local = 1.38019e-06, global = 2.67019e-16, cumulative = -5.75119e-16
rho max/min : 1.225 1.225
DILUPBiCGStab:  Solving for omega, Initial residual = 0.000118141, Final residual = 2.87022e-07, No Iterations 1
DILUPBiCGStab:  Solving for k, Initial residual = 0.004055, Final residual = 5.20961e-06, No Iterations 1
ExecutionTime = 0.11 s  ClockTime = 0 s

Time = 101

DILUPBiCGStab:  Solving for h, Initial residual = 0.0036007, Final residual = 3.25684e-08, No Iterations 1
GAMG:  Solving for p_rgh, Initial residual = 4.78482e-08, Final residual = 4.78482e-08, No Iterations 0
time step continuity errors : sum local = 1.77583e-06, global = -3.53721e-17, cumulative = -6.10491e-16
rho max/min : 1.225 1.225
DILUPBiCGStab:  Solving for omega, Initial residual = 0.000117301, Final residual = 2.83217e-07, No Iterations 1
DILUPBiCGStab:  Solving for k, Initial residual = 0.0039922, Final residual = 5.06062e-06, No Iterations 1
ExecutionTime = 0.11 s  ClockTime = 0 s

Time = 102

DILUPBiCGStab:  Solving for h, Initial residual = 0.00356614, Final residual = 3.23708e-08, No Iterations 1
GAMG:  Solving for p_rgh, Initial residual = 6.48397e-08, Final residual = 6.48397e-08, No Iterations 0
time step continuity errors : sum local = 2.39999e-06, global = 1.7249e-16, cumulative = -4.38001e-16
rho max/min : 1.225 1.225
DILUPBiCGStab:  Solving for omega, Initial residual = 0.000116449, Final residual = 2.79488e-07, No Iterations 1
DILUPBiCGStab:  Solving for k, Initial residual = 0.00392982, Final residual = 4.91369e-06, No Iterations 1
ExecutionTime = 0.11 s  ClockTime = 0 s

Time = 103

DILUPBiCGStab:  Solving for h, Initial residual = 0.00353221, Final residual = 3.2184e-08, No Iterations 1
GAMG:  Solving for p_rgh, Initial residual = 8.73492e-08, Final residual = 8.73492e-08, No Iterations 0
time step continuity errors : sum local = 3.22459e-06, global = -2.65291e-16, cumulative = -7.03292e-16
rho max/min : 1.225 1.225
DILUPBiCGStab:  Solving for omega, Initial residual = 0.000115588, Final residual = 2.75787e-07, No Iterations 1
DILUPBiCGStab:  Solving for k, Initial residual = 0.00386787, Final residual = 4.76871e-06, No Iterations 1
ExecutionTime = 0.11 s  ClockTime = 0 s

Time = 104

DILUPBiCGStab:  Solving for h, Initial residual = 0.00349889, Final residual = 3.20078e-08, No Iterations 1
GAMG:  Solving for p_rgh, Initial residual = 1.15691e-07, Final residual = 1.37522e-11, No Iterations 1
time step continuity errors : sum local = 1.0058e-09, global = -1.18923e-16, cumulative = -8.22215e-16
rho max/min : 1.225 1.225
DILUPBiCGStab:  Solving for omega, Initial residual = 0.000114722, Final residual = 2.72168e-07, No Iterations 1
DILUPBiCGStab:  Solving for k, Initial residual = 0.0038064, Final residual = 4.62574e-06, No Iterations 1
ExecutionTime = 0.11 s  ClockTime = 0 s

Time = 105

DILUPBiCGStab:  Solving for h, Initial residual = 0.00346617, Final residual = 3.18419e-08, No Iterations 1
GAMG:  Solving for p_rgh, Initial residual = 3.24522e-08, Final residual = 3.24522e-08, No Iterations 0
time step continuity errors : sum local = 1.19293e-06, global = 2.35441e-16, cumulative = -5.86774e-16
rho max/min : 1.225 1.225
DILUPBiCGStab:  Solving for omega, Initial residual = 0.000113851, Final residual = 2.6866e-07, No Iterations 1
DILUPBiCGStab:  Solving for k, Initial residual = 0.00374532, Final residual = 4.48464e-06, No Iterations 1
ExecutionTime = 0.11 s  ClockTime = 0 s

Time = 106

DILUPBiCGStab:  Solving for h, Initial residual = 0.00343404, Final residual = 3.16853e-08, No Iterations 1
GAMG:  Solving for p_rgh, Initial residual = 3.99167e-08, Final residual = 3.99167e-08, No Iterations 0
time step continuity errors : sum local = 1.46359e-06, global = -3.5406e-17, cumulative = -6.2218e-16
rho max/min : 1.225 1.225
DILUPBiCGStab:  Solving for omega, Initial residual = 0.000112975, Final residual = 2.65249e-07, No Iterations 1
DILUPBiCGStab:  Solving for k, Initial residual = 0.00368467, Final residual = 4.34551e-06, No Iterations 1
ExecutionTime = 0.11 s  ClockTime = 0 s

Time = 107

DILUPBiCGStab:  Solving for h, Initial residual = 0.0034025, Final residual = 3.15381e-08, No Iterations 1
GAMG:  Solving for p_rgh, Initial residual = 5.27799e-08, Final residual = 5.27799e-08, No Iterations 0
time step continuity errors : sum local = 1.93039e-06, global = -1.45012e-17, cumulative = -6.36681e-16
rho max/min : 1.225 1.225
DILUPBiCGStab:  Solving for omega, Initial residual = 0.000112097, Final residual = 2.61945e-07, No Iterations 1
DILUPBiCGStab:  Solving for k, Initial residual = 0.00362439, Final residual = 4.20875e-06, No Iterations 1
ExecutionTime = 0.11 s  ClockTime = 0 s

Time = 108

DILUPBiCGStab:  Solving for h, Initial residual = 0.00337164, Final residual = 3.14e-08, No Iterations 1
GAMG:  Solving for p_rgh, Initial residual = 6.96201e-08, Final residual = 6.96201e-08, No Iterations 0
time step continuity errors : sum local = 2.54001e-06, global = -1.05066e-16, cumulative = -7.41747e-16
rho max/min : 1.225 1.225
DILUPBiCGStab:  Solving for omega, Initial residual = 0.000111217, Final residual = 2.58729e-07, No Iterations 1
DILUPBiCGStab:  Solving for k, Initial residual = 0.00356414, Final residual = 4.07444e-06, No Iterations 1
ExecutionTime = 0.11 s  ClockTime = 0 s

Time = 109

DILUPBiCGStab:  Solving for h, Initial residual = 0.00334184, Final residual = 3.12715e-08, No Iterations 1
GAMG:  Solving for p_rgh, Initial residual = 9.00012e-08, Final residual = 9.00012e-08, No Iterations 0
time step continuity errors : sum local = 3.27559e-06, global = 3.08151e-16, cumulative = -4.33596e-16
rho max/min : 1.225 1.225
DILUPBiCGStab:  Solving for omega, Initial residual = 0.000110371, Final residual = 2.55633e-07, No Iterations 1
DILUPBiCGStab:  Solving for k, Initial residual = 0.00350424, Final residual = 3.94208e-06, No Iterations 1
ExecutionTime = 0.11 s  ClockTime = 0 s

Time = 110

DILUPBiCGStab:  Solving for h, Initial residual = 0.0033127, Final residual = 3.11524e-08, No Iterations 1
GAMG:  Solving for p_rgh, Initial residual = 1.15819e-07, Final residual = 2.02165e-12, No Iterations 1
time step continuity errors : sum local = 1.4178e-10, global = 4.05221e-17, cumulative = -3.93074e-16
rho max/min : 1.225 1.225
DILUPBiCGStab:  Solving for omega, Initial residual = 0.000109603, Final residual = 2.52692e-07, No Iterations 1
DILUPBiCGStab:  Solving for k, Initial residual = 0.0034447, Final residual = 3.81172e-06, No Iterations 1
ExecutionTime = 0.11 s  ClockTime = 0 s

Time = 111

DILUPBiCGStab:  Solving for h, Initial residual = 0.0032841, Final residual = 3.10413e-08, No Iterations 1
GAMG:  Solving for p_rgh, Initial residual = 2.5413e-08, Final residual = 2.5413e-08, No Iterations 0
time step continuity errors : sum local = 9.20924e-07, global = 1.21905e-16, cumulative = -2.71169e-16
rho max/min : 1.225 1.225
DILUPBiCGStab:  Solving for omega, Initial residual = 0.00010883, Final residual = 2.49824e-07, No Iterations 1
DILUPBiCGStab:  Solving for k, Initial residual = 0.00338518, Final residual = 3.68297e-06, No Iterations 1
ExecutionTime = 0.12 s  ClockTime = 0 s

Time = 112

DILUPBiCGStab:  Solving for h, Initial residual = 0.00325603, Final residual = 3.09376e-08, No Iterations 1
GAMG:  Solving for p_rgh, Initial residual = 3.70501e-08, Final residual = 3.70501e-08, No Iterations 0
time step continuity errors : sum local = 1.33949e-06, global = 2.31071e-17, cumulative = -2.48062e-16
rho max/min : 1.225 1.225
DILUPBiCGStab:  Solving for omega, Initial residual = 0.000108069, Final residual = 2.47026e-07, No Iterations 1
DILUPBiCGStab:  Solving for k, Initial residual = 0.00332609, Final residual = 3.55627e-06, No Iterations 1
ExecutionTime = 0.12 s  ClockTime = 0 s

Time = 113

DILUPBiCGStab:  Solving for h, Initial residual = 0.00322847, Final residual = 3.08412e-08, No Iterations 1
GAMG:  Solving for p_rgh, Initial residual = 5.67184e-08, Final residual = 5.67184e-08, No Iterations 0
time step continuity errors : sum local = 2.04584e-06, global = -3.5467e-16, cumulative = -6.02732e-16
rho max/min : 1.225 1.225
DILUPBiCGStab:  Solving for omega, Initial residual = 0.000107303, Final residual = 2.44298e-07, No Iterations 1
DILUPBiCGStab:  Solving for k, Initial residual = 0.00326745, Final residual = 3.43257e-06, No Iterations 1
ExecutionTime = 0.12 s  ClockTime = 0 s

Time = 114

DILUPBiCGStab:  Solving for h, Initial residual = 0.00320141, Final residual = 3.07517e-08, No Iterations 1
GAMG:  Solving for p_rgh, Initial residual = 7.83613e-08, Final residual = 7.83613e-08, No Iterations 0
time step continuity errors : sum local = 2.82008e-06, global = -1.10792e-17, cumulative = -6.13811e-16
rho max/min : 1.225 1.225
DILUPBiCGStab:  Solving for omega, Initial residual = 0.000106535, Final residual = 2.41641e-07, No Iterations 1
DILUPBiCGStab:  Solving for k, Initial residual = 0.00320925, Final residual = 3.31106e-06, No Iterations 1
ExecutionTime = 0.12 s  ClockTime = 0 s

Time = 115

DILUPBiCGStab:  Solving for h, Initial residual = 0.00317484, Final residual = 3.06689e-08, No Iterations 1
GAMG:  Solving for p_rgh, Initial residual = 1.0273e-07, Final residual = 2.42328e-11, No Iterations 1
time step continuity errors : sum local = 1.71796e-09, global = 4.25888e-16, cumulative = -1.87923e-16
rho max/min : 1.225 1.225
DILUPBiCGStab:  Solving for omega, Initial residual = 0.000105765, Final residual = 2.39051e-07, No Iterations 1
DILUPBiCGStab:  Solving for k, Initial residual = 0.0031515, Final residual = 3.19159e-06, No Iterations 1
ExecutionTime = 0.12 s  ClockTime = 0 s

Time = 116

DILUPBiCGStab:  Solving for h, Initial residual = 0.00314874, Final residual = 3.05921e-08, No Iterations 1
GAMG:  Solving for p_rgh, Initial residual = 2.92273e-08, Final residual = 2.92273e-08, No Iterations 0
time step continuity errors : sum local = 1.04703e-06, global = 6.09864e-17, cumulative = -1.26937e-16
rho max/min : 1.225 1.225
DILUPBiCGStab:  Solving for omega, Initial residual = 0.000104998, Final residual = 2.36539e-07, No Iterations 1
DILUPBiCGStab:  Solving for k, Initial residual = 0.00309418, Final residual = 3.07416e-06, No Iterations 1
ExecutionTime = 0.12 s  ClockTime = 0 s

Time = 117

DILUPBiCGStab:  Solving for h, Initial residual = 0.00312311, Final residual = 3.05217e-08, No Iterations 1
GAMG:  Solving for p_rgh, Initial residual = 6.07363e-08, Final residual = 6.07363e-08, No Iterations 0
time step continuity errors : sum local = 2.17105e-06, global = 4.74338e-18, cumulative = -1.22193e-16
rho max/min : 1.225 1.225
DILUPBiCGStab:  Solving for omega, Initial residual = 0.000104229, Final residual = 2.34094e-07, No Iterations 1
DILUPBiCGStab:  Solving for k, Initial residual = 0.00303732, Final residual = 2.95879e-06, No Iterations 1
ExecutionTime = 0.12 s  ClockTime = 0 s

Time = 118

DILUPBiCGStab:  Solving for h, Initial residual = 0.00309793, Final residual = 3.0457e-08, No Iterations 1
GAMG:  Solving for p_rgh, Initial residual = 9.92029e-08, Final residual = 9.92029e-08, No Iterations 0
time step continuity errors : sum local = 3.53843e-06, global = 2.741e-17, cumulative = -9.47833e-17
rho max/min : 1.225 1.225
DILUPBiCGStab:  Solving for omega, Initial residual = 0.000103463, Final residual = 2.31723e-07, No Iterations 1
DILUPBiCGStab:  Solving for k, Initial residual = 0.0029809, Final residual = 2.84547e-06, No Iterations 1
ExecutionTime = 0.12 s  ClockTime = 0 s

Time = 119

DILUPBiCGStab:  Solving for h, Initial residual = 0.00307319, Final residual = 3.03979e-08, No Iterations 1
GAMG:  Solving for p_rgh, Initial residual = 1.4265e-07, Final residual = 3.29408e-11, No Iterations 1
time step continuity errors : sum local = 2.32839e-09, global = -3.95226e-16, cumulative = -4.90009e-16
rho max/min : 1.225 1.225
DILUPBiCGStab:  Solving for omega, Initial residual = 0.000102714, Final residual = 2.29431e-07, No Iterations 1
DILUPBiCGStab:  Solving for k, Initial residual = 0.0029249, Final residual = 2.73425e-06, No Iterations 1
ExecutionTime = 0.12 s  ClockTime = 0 s

Time = 120

DILUPBiCGStab:  Solving for h, Initial residual = 0.00304888, Final residual = 3.03444e-08, No Iterations 1
GAMG:  Solving for p_rgh, Initial residual = 3.13756e-08, Final residual = 3.13756e-08, No Iterations 0
time step continuity errors : sum local = 1.11405e-06, global = 1.21837e-16, cumulative = -3.68172e-16
rho max/min : 1.225 1.225
DILUPBiCGStab:  Solving for omega, Initial residual = 0.000101941, Final residual = 2.27218e-07, No Iterations 1
DILUPBiCGStab:  Solving for k, Initial residual = 0.00286936, Final residual = 2.6253e-06, No Iterations 1
ExecutionTime = 0.12 s  ClockTime = 0 s

Time = 121

DILUPBiCGStab:  Solving for h, Initial residual = 0.00302498, Final residual = 3.02959e-08, No Iterations 1
GAMG:  Solving for p_rgh, Initial residual = 8.05845e-08, Final residual = 8.05845e-08, No Iterations 0
time step continuity errors : sum local = 2.8554e-06, global = -3.82554e-16, cumulative = -7.50726e-16
rho max/min : 1.225 1.225
DILUPBiCGStab:  Solving for omega, Initial residual = 0.000101186, Final residual = 2.25094e-07, No Iterations 1
DILUPBiCGStab:  Solving for k, Initial residual = 0.00281426, Final residual = 2.51938e-06, No Iterations 1
ExecutionTime = 0.13 s  ClockTime = 0 s

Time = 122

DILUPBiCGStab:  Solving for h, Initial residual = 0.0030015, Final residual = 3.02524e-08, No Iterations 1
GAMG:  Solving for p_rgh, Initial residual = 1.47424e-07, Final residual = 3.15246e-11, No Iterations 1
time step continuity errors : sum local = 2.20312e-09, global = 1.175e-16, cumulative = -6.33225e-16
rho max/min : 1.225 1.225
DILUPBiCGStab:  Solving for omega, Initial residual = 0.000100427, Final residual = 2.23155e-07, No Iterations 1
DILUPBiCGStab:  Solving for k, Initial residual = 0.00275818, Final residual = 2.40202e-06, No Iterations 1
ExecutionTime = 0.13 s  ClockTime = 0 s

Time = 123

DILUPBiCGStab:  Solving for h, Initial residual = 0.00297841, Final residual = 3.02135e-08, No Iterations 1
GAMG:  Solving for p_rgh, Initial residual = 8.06399e-08, Final residual = 8.06399e-08, No Iterations 0
time step continuity errors : sum local = 2.84477e-06, global = -5.23805e-16, cumulative = -1.15703e-15
rho max/min : 1.225 1.225
DILUPBiCGStab:  Solving for omega, Initial residual = 9.96854e-05, Final residual = 2.21411e-07, No Iterations 1
DILUPBiCGStab:  Solving for k, Initial residual = 0.00270074, Final residual = 2.27191e-06, No Iterations 1
ExecutionTime = 0.13 s  ClockTime = 0 s

Time = 124

DILUPBiCGStab:  Solving for h, Initial residual = 0.00295571, Final residual = 3.01793e-08, No Iterations 1
GAMG:  Solving for p_rgh, Initial residual = 1.43457e-07, Final residual = 1.57541e-13, No Iterations 1
time step continuity errors : sum local = 1.06361e-11, global = -2.61767e-16, cumulative = -1.4188e-15
rho max/min : 1.225 1.225
DILUPBiCGStab:  Solving for omega, Initial residual = 9.89495e-05, Final residual = 2.19705e-07, No Iterations 1
DILUPBiCGStab:  Solving for k, Initial residual = 0.00264549, Final residual = 2.14905e-06, No Iterations 1
ExecutionTime = 0.13 s  ClockTime = 0 s

Time = 125

DILUPBiCGStab:  Solving for h, Initial residual = 0.00293339, Final residual = 3.01493e-08, No Iterations 1
GAMG:  Solving for p_rgh, Initial residual = 6.21064e-08, Final residual = 6.21064e-08, No Iterations 0
time step continuity errors : sum local = 2.18176e-06, global = 3.09336e-16, cumulative = -1.10946e-15
rho max/min : 1.225 1.225
DILUPBiCGStab:  Solving for omega, Initial residual = 9.8214e-05, Final residual = 2.18047e-07, No Iterations 1
DILUPBiCGStab:  Solving for k, Initial residual = 0.00259178, Final residual = 2.03117e-06, No Iterations 1
ExecutionTime = 0.13 s  ClockTime = 0 s

Time = 126

DILUPBiCGStab:  Solving for h, Initial residual = 0.00291144, Final residual = 3.01235e-08, No Iterations 1
GAMG:  Solving for p_rgh, Initial residual = 8.52422e-08, Final residual = 8.52422e-08, No Iterations 0
time step continuity errors : sum local = 2.98875e-06, global = -1.10521e-16, cumulative = -1.21998e-15
rho max/min : 1.225 1.225
DILUPBiCGStab:  Solving for omega, Initial residual = 9.74878e-05, Final residual = 2.16443e-07, No Iterations 1
DILUPBiCGStab:  Solving for k, Initial residual = 0.002539, Final residual = 1.91791e-06, No Iterations 1
ExecutionTime = 0.13 s  ClockTime = 0 s

Time = 127

DILUPBiCGStab:  Solving for h, Initial residual = 0.00288985, Final residual = 3.01016e-08, No Iterations 1
GAMG:  Solving for p_rgh, Initial residual = 1.07711e-07, Final residual = 1.53351e-11, No Iterations 1
time step continuity errors : sum local = 1.06471e-09, global = 1.90379e-16, cumulative = -1.0296e-15
rho max/min : 1.225 1.225
DILUPBiCGStab:  Solving for omega, Initial residual = 9.67726e-05, Final residual = 2.14893e-07, No Iterations 1
DILUPBiCGStab:  Solving for k, Initial residual = 0.00248763, Final residual = 1.80899e-06, No Iterations 1
[...]
DILUPBiCGStab:  Solving for omega, Initial residual = 1.70459e-07, Final residual = 1.25495e-09, No Iterations 1
DILUPBiCGStab:  Solving for k, Initial residual = 0.000102006, Final residual = 7.59682e-07, No Iterations 1
ExecutionTime = 1.97 s  ClockTime = 2 s

Time = 1969

DILUPBiCGStab:  Solving for h, Initial residual = 0.000227736, Final residual = 6.9933e-08, No Iterations 1
GAMG:  Solving for p_rgh, Initial residual = 1.15423e-07, Final residual = 3.25934e-12, No Iterations 1
time step continuity errors : sum local = 1.17849e-11, global = -6.11388e-16, cumulative = 1.60921e-15
rho max/min : 1.225 1.225
DILUPBiCGStab:  Solving for omega, Initial residual = 1.69881e-07, Final residual = 1.24932e-09, No Iterations 1
DILUPBiCGStab:  Solving for k, Initial residual = 0.000101517, Final residual = 7.55946e-07, No Iterations 1
ExecutionTime = 1.98 s  ClockTime = 2 s

Time = 1970

DILUPBiCGStab:  Solving for h, Initial residual = 0.00022744, Final residual = 6.98553e-08, No Iterations 1
GAMG:  Solving for p_rgh, Initial residual = 4.77905e-08, Final residual = 4.77905e-08, No Iterations 0
time step continuity errors : sum local = 8.65113e-08, global = -5.65344e-16, cumulative = 1.04387e-15
rho max/min : 1.225 1.225
DILUPBiCGStab:  Solving for omega, Initial residual = 1.6893e-07, Final residual = 1.24294e-09, No Iterations 1
DILUPBiCGStab:  Solving for k, Initial residual = 0.000101023, Final residual = 7.52212e-07, No Iterations 1
ExecutionTime = 1.98 s  ClockTime = 2 s

Time = 1971

DILUPBiCGStab:  Solving for h, Initial residual = 0.000227144, Final residual = 6.97776e-08, No Iterations 1
GAMG:  Solving for p_rgh, Initial residual = 7.4209e-08, Final residual = 7.4209e-08, No Iterations 0
time step continuity errors : sum local = 1.34334e-07, global = -4.20128e-18, cumulative = 1.03966e-15
rho max/min : 1.225 1.225
DILUPBiCGStab:  Solving for omega, Initial residual = 1.67987e-07, Final residual = 1.23654e-09, No Iterations 1
DILUPBiCGStab:  Solving for k, Initial residual = 0.000100529, Final residual = 7.48471e-07, No Iterations 1
ExecutionTime = 1.98 s  ClockTime = 2 s

Time = 1972

DILUPBiCGStab:  Solving for h, Initial residual = 0.000226848, Final residual = 6.96999e-08, No Iterations 1
GAMG:  Solving for p_rgh, Initial residual = 1.13753e-07, Final residual = 3.22562e-12, No Iterations 1
time step continuity errors : sum local = 1.16607e-11, global = 2.84739e-16, cumulative = 1.3244e-15
rho max/min : 1.225 1.225
DILUPBiCGStab:  Solving for omega, Initial residual = 1.67418e-07, Final residual = 1.231e-09, No Iterations 1
DILUPBiCGStab:  Solving for k, Initial residual = 0.000100047, Final residual = 7.44789e-07, No Iterations 1
ExecutionTime = 1.98 s  ClockTime = 2 s

Time = 1973

DILUPBiCGStab:  Solving for h, Initial residual = 0.000226553, Final residual = 6.96222e-08, No Iterations 1
GAMG:  Solving for p_rgh, Initial residual = 4.71028e-08, Final residual = 4.71028e-08, No Iterations 0
time step continuity errors : sum local = 8.52407e-08, global = -2.50959e-16, cumulative = 1.07344e-15
rho max/min : 1.225 1.225
DILUPBiCGStab:  Solving for omega, Initial residual = 1.66482e-07, Final residual = 1.22471e-09, No Iterations 1
DILUPBiCGStab:  Solving for k, Initial residual = 9.95594e-05, Final residual = 7.41109e-07, No Iterations 1
ExecutionTime = 1.98 s  ClockTime = 2 s

Time = 1974

DILUPBiCGStab:  Solving for h, Initial residual = 0.000226259, Final residual = 6.95446e-08, No Iterations 1
GAMG:  Solving for p_rgh, Initial residual = 7.31436e-08, Final residual = 7.31436e-08, No Iterations 0
time step continuity errors : sum local = 1.32366e-07, global = 3.83062e-16, cumulative = 1.45651e-15
rho max/min : 1.225 1.225
DILUPBiCGStab:  Solving for omega, Initial residual = 1.65553e-07, Final residual = 1.21841e-09, No Iterations 1
DILUPBiCGStab:  Solving for k, Initial residual = 9.90722e-05, Final residual = 7.37423e-07, No Iterations 1
ExecutionTime = 1.98 s  ClockTime = 2 s

Time = 1975

DILUPBiCGStab:  Solving for h, Initial residual = 0.000225964, Final residual = 6.9467e-08, No Iterations 1
GAMG:  Solving for p_rgh, Initial residual = 1.12121e-07, Final residual = 3.18499e-12, No Iterations 1
time step continuity errors : sum local = 1.1509e-11, global = 2.48011e-16, cumulative = 1.70452e-15
rho max/min : 1.225 1.225
DILUPBiCGStab:  Solving for omega, Initial residual = 1.64993e-07, Final residual = 1.21294e-09, No Iterations 1
DILUPBiCGStab:  Solving for k, Initial residual = 9.85962e-05, Final residual = 7.33795e-07, No Iterations 1
ExecutionTime = 1.98 s  ClockTime = 2 s

Time = 1976

DILUPBiCGStab:  Solving for h, Initial residual = 0.000225671, Final residual = 6.93895e-08, No Iterations 1
GAMG:  Solving for p_rgh, Initial residual = 4.64269e-08, Final residual = 4.64269e-08, No Iterations 0
time step continuity errors : sum local = 8.39925e-08, global = -1.58565e-16, cumulative = 1.54595e-15
rho max/min : 1.225 1.225
DILUPBiCGStab:  Solving for omega, Initial residual = 1.64071e-07, Final residual = 1.20674e-09, No Iterations 1
DILUPBiCGStab:  Solving for k, Initial residual = 9.81157e-05, Final residual = 7.3017e-07, No Iterations 1
ExecutionTime = 1.98 s  ClockTime = 2 s

Time = 1977

DILUPBiCGStab:  Solving for h, Initial residual = 0.000225377, Final residual = 6.9312e-08, No Iterations 1
GAMG:  Solving for p_rgh, Initial residual = 7.20937e-08, Final residual = 7.20937e-08, No Iterations 0
time step continuity errors : sum local = 1.30427e-07, global = -2.70441e-16, cumulative = 1.27551e-15
rho max/min : 1.225 1.225
DILUPBiCGStab:  Solving for omega, Initial residual = 1.63156e-07, Final residual = 1.20054e-09, No Iterations 1
DILUPBiCGStab:  Solving for k, Initial residual = 9.76351e-05, Final residual = 7.26538e-07, No Iterations 1
ExecutionTime = 1.98 s  ClockTime = 2 s

Time = 1978

DILUPBiCGStab:  Solving for h, Initial residual = 0.000225084, Final residual = 6.92345e-08, No Iterations 1
GAMG:  Solving for p_rgh, Initial residual = 1.10511e-07, Final residual = 3.13485e-12, No Iterations 1
time step continuity errors : sum local = 1.13248e-11, global = -3.524e-16, cumulative = 9.23113e-16
rho max/min : 1.225 1.225
DILUPBiCGStab:  Solving for omega, Initial residual = 1.62604e-07, Final residual = 1.19514e-09, No Iterations 1
DILUPBiCGStab:  Solving for k, Initial residual = 9.71657e-05, Final residual = 7.22964e-07, No Iterations 1
ExecutionTime = 1.98 s  ClockTime = 2 s

Time = 1979

DILUPBiCGStab:  Solving for h, Initial residual = 0.000224791, Final residual = 6.91571e-08, No Iterations 1
GAMG:  Solving for p_rgh, Initial residual = 4.57599e-08, Final residual = 4.57599e-08, No Iterations 0
time step continuity errors : sum local = 8.27615e-08, global = -3.15164e-16, cumulative = 6.07949e-16
rho max/min : 1.225 1.225
DILUPBiCGStab:  Solving for omega, Initial residual = 1.61696e-07, Final residual = 1.18904e-09, No Iterations 1
DILUPBiCGStab:  Solving for k, Initial residual = 9.66918e-05, Final residual = 7.19392e-07, No Iterations 1
ExecutionTime = 1.99 s  ClockTime = 2 s

Time = 1980

DILUPBiCGStab:  Solving for h, Initial residual = 0.000224499, Final residual = 6.90797e-08, No Iterations 1
GAMG:  Solving for p_rgh, Initial residual = 7.10579e-08, Final residual = 7.10579e-08, No Iterations 0
time step continuity errors : sum local = 1.28516e-07, global = 4.32664e-17, cumulative = 6.51215e-16
rho max/min : 1.225 1.225
DILUPBiCGStab:  Solving for omega, Initial residual = 1.60796e-07, Final residual = 1.18294e-09, No Iterations 1
DILUPBiCGStab:  Solving for k, Initial residual = 9.62178e-05, Final residual = 7.15814e-07, No Iterations 1
ExecutionTime = 1.99 s  ClockTime = 2 s

Time = 1981

DILUPBiCGStab:  Solving for h, Initial residual = 0.000224207, Final residual = 6.90023e-08, No Iterations 1
GAMG:  Solving for p_rgh, Initial residual = 1.08924e-07, Final residual = 3.09565e-12, No Iterations 1
time step continuity errors : sum local = 1.11796e-11, global = -2.77691e-16, cumulative = 3.73524e-16
rho max/min : 1.225 1.225
DILUPBiCGStab:  Solving for omega, Initial residual = 1.60252e-07, Final residual = 1.17761e-09, No Iterations 1
DILUPBiCGStab:  Solving for k, Initial residual = 9.57549e-05, Final residual = 7.12293e-07, No Iterations 1
ExecutionTime = 1.99 s  ClockTime = 2 s

Time = 1982

DILUPBiCGStab:  Solving for h, Initial residual = 0.000223915, Final residual = 6.89249e-08, No Iterations 1
GAMG:  Solving for p_rgh, Initial residual = 4.5103e-08, Final residual = 4.5103e-08, No Iterations 0
time step continuity errors : sum local = 8.15499e-08, global = 8.84302e-17, cumulative = 4.61954e-16
rho max/min : 1.225 1.225
DILUPBiCGStab:  Solving for omega, Initial residual = 1.59358e-07, Final residual = 1.17161e-09, No Iterations 1
DILUPBiCGStab:  Solving for k, Initial residual = 9.52875e-05, Final residual = 7.08774e-07, No Iterations 1
ExecutionTime = 1.99 s  ClockTime = 2 s

Time = 1983

DILUPBiCGStab:  Solving for h, Initial residual = 0.000223624, Final residual = 6.88476e-08, No Iterations 1
GAMG:  Solving for p_rgh, Initial residual = 7.00388e-08, Final residual = 7.00388e-08, No Iterations 0
time step continuity errors : sum local = 1.26636e-07, global = 3.37119e-17, cumulative = 4.95666e-16
rho max/min : 1.225 1.225
DILUPBiCGStab:  Solving for omega, Initial residual = 1.58472e-07, Final residual = 1.16559e-09, No Iterations 1
DILUPBiCGStab:  Solving for k, Initial residual = 9.48201e-05, Final residual = 7.05248e-07, No Iterations 1
ExecutionTime = 1.99 s  ClockTime = 2 s

Time = 1984

DILUPBiCGStab:  Solving for h, Initial residual = 0.000223333, Final residual = 6.87704e-08, No Iterations 1
GAMG:  Solving for p_rgh, Initial residual = 1.07362e-07, Final residual = 3.05373e-12, No Iterations 1
time step continuity errors : sum local = 1.10246e-11, global = -7.53521e-17, cumulative = 4.20314e-16
rho max/min : 1.225 1.225
DILUPBiCGStab:  Solving for omega, Initial residual = 1.57936e-07, Final residual = 1.16034e-09, No Iterations 1
DILUPBiCGStab:  Solving for k, Initial residual = 9.43636e-05, Final residual = 7.01779e-07, No Iterations 1
ExecutionTime = 1.99 s  ClockTime = 2 s

Time = 1985

DILUPBiCGStab:  Solving for h, Initial residual = 0.000223043, Final residual = 6.86932e-08, No Iterations 1
GAMG:  Solving for p_rgh, Initial residual = 4.44574e-08, Final residual = 4.44574e-08, No Iterations 0
time step continuity errors : sum local = 8.03597e-08, global = 4.76371e-17, cumulative = 4.67951e-16
rho max/min : 1.225 1.225
DILUPBiCGStab:  Solving for omega, Initial residual = 1.57056e-07, Final residual = 1.15442e-09, No Iterations 1
DILUPBiCGStab:  Solving for k, Initial residual = 9.39028e-05, Final residual = 6.98313e-07, No Iterations 1
ExecutionTime = 1.99 s  ClockTime = 2 s

Time = 1986

DILUPBiCGStab:  Solving for h, Initial residual = 0.000222753, Final residual = 6.8616e-08, No Iterations 1
GAMG:  Solving for p_rgh, Initial residual = 6.90371e-08, Final residual = 6.90371e-08, No Iterations 0
time step continuity errors : sum local = 1.24789e-07, global = -2.88262e-16, cumulative = 1.79689e-16
rho max/min : 1.225 1.225
DILUPBiCGStab:  Solving for omega, Initial residual = 1.56183e-07, Final residual = 1.1485e-09, No Iterations 1
DILUPBiCGStab:  Solving for k, Initial residual = 9.34419e-05, Final residual = 6.94842e-07, No Iterations 1
ExecutionTime = 1.99 s  ClockTime = 2 s

Time = 1987

DILUPBiCGStab:  Solving for h, Initial residual = 0.000222463, Final residual = 6.85388e-08, No Iterations 1
GAMG:  Solving for p_rgh, Initial residual = 1.05828e-07, Final residual = 3.01136e-12, No Iterations 1
time step continuity errors : sum local = 1.08694e-11, global = 1.06286e-16, cumulative = 2.85975e-16
rho max/min : 1.225 1.225
DILUPBiCGStab:  Solving for omega, Initial residual = 1.55655e-07, Final residual = 1.14332e-09, No Iterations 1
DILUPBiCGStab:  Solving for k, Initial residual = 9.29917e-05, Final residual = 6.91427e-07, No Iterations 1
ExecutionTime = 1.99 s  ClockTime = 2 s

Time = 1988

DILUPBiCGStab:  Solving for h, Initial residual = 0.000222173, Final residual = 6.84617e-08, No Iterations 1
GAMG:  Solving for p_rgh, Initial residual = 4.38224e-08, Final residual = 4.38224e-08, No Iterations 0
time step continuity errors : sum local = 7.91897e-08, global = -6.92907e-16, cumulative = -4.06932e-16
rho max/min : 1.225 1.225
DILUPBiCGStab:  Solving for omega, Initial residual = 1.54788e-07, Final residual = 1.13749e-09, No Iterations 1
DILUPBiCGStab:  Solving for k, Initial residual = 9.25373e-05, Final residual = 6.88017e-07, No Iterations 1
ExecutionTime = 1.99 s  ClockTime = 2 s

Time = 1989

DILUPBiCGStab:  Solving for h, Initial residual = 0.000221884, Final residual = 6.83846e-08, No Iterations 1
GAMG:  Solving for p_rgh, Initial residual = 6.80517e-08, Final residual = 6.80517e-08, No Iterations 0
time step continuity errors : sum local = 1.22974e-07, global = 2.48113e-16, cumulative = -1.58819e-16
rho max/min : 1.225 1.225
DILUPBiCGStab:  Solving for omega, Initial residual = 1.53928e-07, Final residual = 1.13166e-09, No Iterations 1
DILUPBiCGStab:  Solving for k, Initial residual = 9.20829e-05, Final residual = 6.84599e-07, No Iterations 1
ExecutionTime = 1.99 s  ClockTime = 2 s

Time = 1990

DILUPBiCGStab:  Solving for h, Initial residual = 0.000221596, Final residual = 6.83076e-08, No Iterations 1
GAMG:  Solving for p_rgh, Initial residual = 1.04318e-07, Final residual = 2.97002e-12, No Iterations 1
time step continuity errors : sum local = 1.07185e-11, global = -3.09607e-16, cumulative = -4.68427e-16
rho max/min : 1.225 1.225
DILUPBiCGStab:  Solving for omega, Initial residual = 1.53409e-07, Final residual = 1.12655e-09, No Iterations 1
DILUPBiCGStab:  Solving for k, Initial residual = 9.1639e-05, Final residual = 6.81236e-07, No Iterations 1
ExecutionTime = 2 s  ClockTime = 2 s

Time = 1991

DILUPBiCGStab:  Solving for h, Initial residual = 0.000221308, Final residual = 6.82306e-08, No Iterations 1
GAMG:  Solving for p_rgh, Initial residual = 4.31974e-08, Final residual = 4.31974e-08, No Iterations 0
time step continuity errors : sum local = 7.80388e-08, global = -1.42708e-16, cumulative = -6.11135e-16
rho max/min : 1.225 1.225
DILUPBiCGStab:  Solving for omega, Initial residual = 1.52554e-07, Final residual = 1.12081e-09, No Iterations 1
DILUPBiCGStab:  Solving for k, Initial residual = 9.1191e-05, Final residual = 6.77876e-07, No Iterations 1
ExecutionTime = 2 s  ClockTime = 2 s

Time = 1992

DILUPBiCGStab:  Solving for h, Initial residual = 0.00022102, Final residual = 6.81536e-08, No Iterations 1
GAMG:  Solving for p_rgh, Initial residual = 6.70817e-08, Final residual = 6.70817e-08, No Iterations 0
time step continuity errors : sum local = 1.21187e-07, global = 9.01921e-17, cumulative = -5.20943e-16
rho max/min : 1.225 1.225
DILUPBiCGStab:  Solving for omega, Initial residual = 1.51707e-07, Final residual = 1.11507e-09, No Iterations 1
DILUPBiCGStab:  Solving for k, Initial residual = 9.07429e-05, Final residual = 6.74509e-07, No Iterations 1
ExecutionTime = 2 s  ClockTime = 2 s

Time = 1993

DILUPBiCGStab:  Solving for h, Initial residual = 0.000220732, Final residual = 6.80767e-08, No Iterations 1
GAMG:  Solving for p_rgh, Initial residual = 1.02831e-07, Final residual = 2.93034e-12, No Iterations 1
time step continuity errors : sum local = 1.05708e-11, global = 2.27615e-16, cumulative = -2.93328e-16
rho max/min : 1.225 1.225
DILUPBiCGStab:  Solving for omega, Initial residual = 1.51195e-07, Final residual = 1.11003e-09, No Iterations 1
DILUPBiCGStab:  Solving for k, Initial residual = 9.03055e-05, Final residual = 6.71197e-07, No Iterations 1
ExecutionTime = 2 s  ClockTime = 2 s

Time = 1994

DILUPBiCGStab:  Solving for h, Initial residual = 0.000220445, Final residual = 6.79998e-08, No Iterations 1
GAMG:  Solving for p_rgh, Initial residual = 4.25822e-08, Final residual = 4.25822e-08, No Iterations 0
time step continuity errors : sum local = 7.69063e-08, global = -9.23605e-17, cumulative = -3.85688e-16
rho max/min : 1.225 1.225
DILUPBiCGStab:  Solving for omega, Initial residual = 1.50354e-07, Final residual = 1.10438e-09, No Iterations 1
DILUPBiCGStab:  Solving for k, Initial residual = 8.98644e-05, Final residual = 6.67891e-07, No Iterations 1
ExecutionTime = 2 s  ClockTime = 2 s

Time = 1995

DILUPBiCGStab:  Solving for h, Initial residual = 0.000220159, Final residual = 6.7923e-08, No Iterations 1
GAMG:  Solving for p_rgh, Initial residual = 6.61911e-08, Final residual = 6.61911e-08, No Iterations 0
time step continuity errors : sum local = 1.19546e-07, global = 1.50467e-16, cumulative = -2.35221e-16
rho max/min : 1.225 1.225
DILUPBiCGStab:  Solving for omega, Initial residual = 1.49519e-07, Final residual = 1.09882e-09, No Iterations 1
DILUPBiCGStab:  Solving for k, Initial residual = 8.94354e-05, Final residual = 6.64615e-07, No Iterations 1
ExecutionTime = 2 s  ClockTime = 2 s

Time = 1996

DILUPBiCGStab:  Solving for h, Initial residual = 0.000219873, Final residual = 6.78461e-08, No Iterations 1
GAMG:  Solving for p_rgh, Initial residual = 1.01994e-07, Final residual = 2.72053e-12, No Iterations 1
time step continuity errors : sum local = 9.81202e-12, global = -9.7917e-17, cumulative = -3.33138e-16
rho max/min : 1.225 1.225
DILUPBiCGStab:  Solving for omega, Initial residual = 1.49018e-07, Final residual = 1.09441e-09, No Iterations 1
DILUPBiCGStab:  Solving for k, Initial residual = 8.90709e-05, Final residual = 6.61699e-07, No Iterations 1
ExecutionTime = 2 s  ClockTime = 2 s

Time = 1997

DILUPBiCGStab:  Solving for h, Initial residual = 0.000219587, Final residual = 6.77692e-08, No Iterations 1
GAMG:  Solving for p_rgh, Initial residual = 4.3179e-08, Final residual = 4.3179e-08, No Iterations 0
time step continuity errors : sum local = 7.79633e-08, global = -6.44423e-17, cumulative = -3.97581e-16
rho max/min : 1.225 1.225
DILUPBiCGStab:  Solving for omega, Initial residual = 1.48192e-07, Final residual = 1.08937e-09, No Iterations 1
DILUPBiCGStab:  Solving for k, Initial residual = 8.87021e-05, Final residual = 6.58824e-07, No Iterations 1
ExecutionTime = 2 s  ClockTime = 2 s

Time = 1998

DILUPBiCGStab:  Solving for h, Initial residual = 0.000219302, Final residual = 6.76924e-08, No Iterations 1
GAMG:  Solving for p_rgh, Initial residual = 6.71636e-08, Final residual = 6.71636e-08, No Iterations 0
time step continuity errors : sum local = 1.21269e-07, global = 4.0146e-16, cumulative = 3.87899e-18
rho max/min : 1.225 1.225
DILUPBiCGStab:  Solving for omega, Initial residual = 1.47377e-07, Final residual = 1.08428e-09, No Iterations 1
DILUPBiCGStab:  Solving for k, Initial residual = 8.83292e-05, Final residual = 6.55924e-07, No Iterations 1
ExecutionTime = 2 s  ClockTime = 2 s

Time = 1999

DILUPBiCGStab:  Solving for h, Initial residual = 0.000219017, Final residual = 6.76156e-08, No Iterations 1
GAMG:  Solving for p_rgh, Initial residual = 1.02458e-07, Final residual = 2.87462e-12, No Iterations 1
time step continuity errors : sum local = 1.03624e-11, global = 3.10624e-16, cumulative = 3.14503e-16
rho max/min : 1.225 1.225
DILUPBiCGStab:  Solving for omega, Initial residual = 1.46897e-07, Final residual = 1.07984e-09, No Iterations 1
DILUPBiCGStab:  Solving for k, Initial residual = 8.7963e-05, Final residual = 6.5306e-07, No Iterations 1
ExecutionTime = 2 s  ClockTime = 2 s

Time = 2000

DILUPBiCGStab:  Solving for h, Initial residual = 0.000218732, Final residual = 6.75388e-08, No Iterations 1
GAMG:  Solving for p_rgh, Initial residual = 4.23854e-08, Final residual = 4.23854e-08, No Iterations 0
time step continuity errors : sum local = 7.65097e-08, global = 1.71101e-17, cumulative = 3.31613e-16
rho max/min : 1.225 1.225
DILUPBiCGStab:  Solving for omega, Initial residual = 1.46093e-07, Final residual = 1.07478e-09, No Iterations 1
DILUPBiCGStab:  Solving for k, Initial residual = 8.75905e-05, Final residual = 6.5019e-07, No Iterations 1
ExecutionTime = 2.01 s  ClockTime = 2 s

End

