/*---------------------------------------------------------------------------*\
  =========                 |
  \\      /  F ield         | OpenFOAM: The Open Source CFD Toolbox
   \\    /   O peration     | Website:  https://openfoam.org
    \\  /    A nd           | Version:  7
     \\/     M anipulation  |
\*---------------------------------------------------------------------------*/
Build  : 7-3bcbaf946ae9
Exec   : buoyantSimpleFoam
Date   : Jul 19 2022
Time   : 02:40:08
Host   : "Lubuntu"
PID    : 106301
I/O    : uncollated
Case   : /home/ensm_student/Documents/CFD/Rechnerubung/Week8/turbulent_channel_ht
nProcs : 1
sigFpe : Enabling floating point exception trapping (FOAM_SIGFPE).
fileModificationChecking : Monitoring run-time modified files using timeStampMaster (fileModificationSkew 10)
allowSystemOperations : Allowing user-supplied system call operations

// * * * * * * * * * * * * * * * * * * * * * * * * * * * * * * * * * * * * * //
Create time

Create mesh for time = 0


SIMPLE: Convergence criteria found
        p_rgh: tolerance 0.0001
        U: tolerance 0.0001
        h: tolerance 0.0001
        "(k|epsilon|omega)": tolerance 0.001

Reading thermophysical properties

Selecting thermodynamics package 
{
    type            heRhoThermo;
    mixture         pureMixture;
    transport       const;
    thermo          hConst;
    equationOfState rhoConst;
    specie          specie;
    energy          sensibleEnthalpy;
}

Reading field U

Reading/calculating face flux field phi

Creating turbulence model

Selecting turbulence model type RAS
Selecting RAS turbulence model kOmegaSST
Selecting patchDistMethod meshWave
RAS
{
    RASModel        kOmegaSST;
    turbulence      on;
    printCoeffs     on;
    alphaK1         0.85;
    alphaK2         1;
    alphaOmega1     0.5;
    alphaOmega2     0.856;
    gamma1          0.555556;
    gamma2          0.44;
    beta1           0.075;
    beta2           0.0828;
    betaStar        0.09;
    a1              0.31;
    b1              1;
    c1              10;
    F3              false;
}


Reading g

Reading hRef
Calculating field g.h

Reading field p_rgh

No MRF models present

Radiation model not active: radiationProperties not found
Selecting radiationModel none
No finite volume options present

Starting time loop

Time = 1

DILUPBiCGStab:  Solving for h, Initial residual = 1, Final residual = 4.09833e-07, No Iterations 1
GAMG:  Solving for p_rgh, Initial residual = 1, Final residual = 0.000333401, No Iterations 1
time step continuity errors : sum local = 0.00109846, global = -1.31053e-16, cumulative = -1.31053e-16
rho max/min : 1.225 1.225
DILUPBiCGStab:  Solving for omega, Initial residual = 0.181049, Final residual = 0.000286137, No Iterations 1
DILUPBiCGStab:  Solving for k, Initial residual = 1, Final residual = 0.0102333, No Iterations 1
ExecutionTime = 0.01 s  ClockTime = 0 s

Time = 2

DILUPBiCGStab:  Solving for h, Initial residual = 0.556441, Final residual = 4.46846e-05, No Iterations 1
GAMG:  Solving for p_rgh, Initial residual = 0.000876231, Final residual = 2.11028e-07, No Iterations 1
time step continuity errors : sum local = 0.000383315, global = -3.14554e-16, cumulative = -4.45607e-16
rho max/min : 1.225 1.225
DILUPBiCGStab:  Solving for omega, Initial residual = 0.123885, Final residual = 0.000717763, No Iterations 1
DILUPBiCGStab:  Solving for k, Initial residual = 0.404447, Final residual = 0.00285278, No Iterations 1
ExecutionTime = 0.01 s  ClockTime = 0 s

Time = 3

DILUPBiCGStab:  Solving for h, Initial residual = 0.0929275, Final residual = 1.80173e-05, No Iterations 1
GAMG:  Solving for p_rgh, Initial residual = 0.00118717, Final residual = 5.07216e-07, No Iterations 1
time step continuity errors : sum local = 0.000799718, global = 1.77877e-16, cumulative = -2.6773e-16
rho max/min : 1.225 1.225
DILUPBiCGStab:  Solving for omega, Initial residual = 0.0660349, Final residual = 0.000590564, No Iterations 1
DILUPBiCGStab:  Solving for k, Initial residual = 0.211277, Final residual = 0.00134243, No Iterations 1
ExecutionTime = 0.01 s  ClockTime = 0 s

Time = 4

DILUPBiCGStab:  Solving for h, Initial residual = 0.0513766, Final residual = 1.25935e-05, No Iterations 1
GAMG:  Solving for p_rgh, Initial residual = 0.00130952, Final residual = 1.35441e-07, No Iterations 1
time step continuity errors : sum local = 0.000128817, global = -6.34258e-17, cumulative = -3.31156e-16
rho max/min : 1.225 1.225
DILUPBiCGStab:  Solving for omega, Initial residual = 0.027293, Final residual = 0.000187273, No Iterations 1
DILUPBiCGStab:  Solving for k, Initial residual = 0.136639, Final residual = 0.000908708, No Iterations 1
ExecutionTime = 0.01 s  ClockTime = 0 s

Time = 5

DILUPBiCGStab:  Solving for h, Initial residual = 0.0339477, Final residual = 9.22535e-06, No Iterations 1
GAMG:  Solving for p_rgh, Initial residual = 0.0017308, Final residual = 3.03629e-07, No Iterations 1
time step continuity errors : sum local = 0.000130994, global = -1.51704e-17, cumulative = -3.46326e-16
rho max/min : 1.225 1.225
DILUPBiCGStab:  Solving for omega, Initial residual = 0.0313666, Final residual = 0.000161144, No Iterations 1
DILUPBiCGStab:  Solving for k, Initial residual = 0.0982209, Final residual = 0.000873913, No Iterations 1
ExecutionTime = 0.01 s  ClockTime = 0 s

Time = 6

DILUPBiCGStab:  Solving for h, Initial residual = 0.0246568, Final residual = 7.05502e-06, No Iterations 1
GAMG:  Solving for p_rgh, Initial residual = 0.00215217, Final residual = 8.36519e-07, No Iterations 1
time step continuity errors : sum local = 0.000129349, global = -6.50521e-18, cumulative = -3.52832e-16
rho max/min : 1.225 1.225
DILUPBiCGStab:  Solving for omega, Initial residual = 0.0277002, Final residual = 0.000187707, No Iterations 1
DILUPBiCGStab:  Solving for k, Initial residual = 0.0705344, Final residual = 0.000582252, No Iterations 1
ExecutionTime = 0.01 s  ClockTime = 0 s

Time = 7

DILUPBiCGStab:  Solving for h, Initial residual = 0.0193302, Final residual = 5.64085e-06, No Iterations 1
GAMG:  Solving for p_rgh, Initial residual = 0.00239033, Final residual = 1.33783e-06, No Iterations 1
time step continuity errors : sum local = 6.97549e-05, global = -8.67362e-17, cumulative = -4.39568e-16
rho max/min : 1.225 1.225
DILUPBiCGStab:  Solving for omega, Initial residual = 0.0236929, Final residual = 0.000202356, No Iterations 1
DILUPBiCGStab:  Solving for k, Initial residual = 0.0614748, Final residual = 0.000253518, No Iterations 1
ExecutionTime = 0.01 s  ClockTime = 0 s

Time = 8

DILUPBiCGStab:  Solving for h, Initial residual = 0.0159326, Final residual = 4.65659e-06, No Iterations 1
GAMG:  Solving for p_rgh, Initial residual = 0.00211551, Final residual = 4.5803e-08, No Iterations 1
time step continuity errors : sum local = 1.44571e-06, global = 6.451e-17, cumulative = -3.75058e-16
rho max/min : 1.225 1.225
DILUPBiCGStab:  Solving for omega, Initial residual = 0.01989, Final residual = 0.000194275, No Iterations 1
DILUPBiCGStab:  Solving for k, Initial residual = 0.0494538, Final residual = 0.0002461, No Iterations 1
ExecutionTime = 0.01 s  ClockTime = 0 s

Time = 9

DILUPBiCGStab:  Solving for h, Initial residual = 0.0136034, Final residual = 3.96685e-06, No Iterations 1
GAMG:  Solving for p_rgh, Initial residual = 0.00119967, Final residual = 5.08308e-07, No Iterations 1
time step continuity errors : sum local = 2.02681e-05, global = -5.96311e-18, cumulative = -3.81021e-16
rho max/min : 1.225 1.225
DILUPBiCGStab:  Solving for omega, Initial residual = 0.0170284, Final residual = 0.000175492, No Iterations 1
DILUPBiCGStab:  Solving for k, Initial residual = 0.0421008, Final residual = 0.000249147, No Iterations 1
ExecutionTime = 0.01 s  ClockTime = 0 s

Time = 10

DILUPBiCGStab:  Solving for h, Initial residual = 0.0119531, Final residual = 3.51197e-06, No Iterations 1
GAMG:  Solving for p_rgh, Initial residual = 0.000430789, Final residual = 2.7298e-07, No Iterations 1
time step continuity errors : sum local = 1.4024e-05, global = 1.7022e-16, cumulative = -2.10801e-16
rho max/min : 1.225 1.225
DILUPBiCGStab:  Solving for omega, Initial residual = 0.0149289, Final residual = 0.000153988, No Iterations 1
DILUPBiCGStab:  Solving for k, Initial residual = 0.0397284, Final residual = 0.000250007, No Iterations 1
ExecutionTime = 0.01 s  ClockTime = 0 s

Time = 11

DILUPBiCGStab:  Solving for h, Initial residual = 0.010744, Final residual = 3.2191e-06, No Iterations 1
GAMG:  Solving for p_rgh, Initial residual = 0.000229499, Final residual = 5.93532e-08, No Iterations 1
time step continuity errors : sum local = 3.42569e-06, global = 1.06252e-16, cumulative = -1.04549e-16
rho max/min : 1.225 1.225
DILUPBiCGStab:  Solving for omega, Initial residual = 0.0134122, Final residual = 0.000138251, No Iterations 1
DILUPBiCGStab:  Solving for k, Initial residual = 0.0376162, Final residual = 0.000243996, No Iterations 1
ExecutionTime = 0.02 s  ClockTime = 0 s

Time = 12

DILUPBiCGStab:  Solving for h, Initial residual = 0.00986438, Final residual = 3.02285e-06, No Iterations 1
GAMG:  Solving for p_rgh, Initial residual = 0.000121337, Final residual = 2.70993e-08, No Iterations 1
time step continuity errors : sum local = 1.59362e-06, global = -2.81893e-17, cumulative = -1.32738e-16
rho max/min : 1.225 1.225
DILUPBiCGStab:  Solving for omega, Initial residual = 0.0120744, Final residual = 0.000125879, No Iterations 1
DILUPBiCGStab:  Solving for k, Initial residual = 0.0346042, Final residual = 0.000237, No Iterations 1
ExecutionTime = 0.02 s  ClockTime = 0 s

Time = 13

DILUPBiCGStab:  Solving for h, Initial residual = 0.009469, Final residual = 2.91297e-06, No Iterations 1
GAMG:  Solving for p_rgh, Initial residual = 7.15828e-05, Final residual = 3.18373e-08, No Iterations 1
time step continuity errors : sum local = 1.81043e-06, global = -1.27936e-16, cumulative = -2.60674e-16
rho max/min : 1.225 1.225
DILUPBiCGStab:  Solving for omega, Initial residual = 0.0109604, Final residual = 0.000115095, No Iterations 1
DILUPBiCGStab:  Solving for k, Initial residual = 0.0314446, Final residual = 0.000228881, No Iterations 1
ExecutionTime = 0.02 s  ClockTime = 0 s

Time = 14

DILUPBiCGStab:  Solving for h, Initial residual = 0.00943513, Final residual = 2.87992e-06, No Iterations 1
GAMG:  Solving for p_rgh, Initial residual = 5.60972e-05, Final residual = 1.05741e-08, No Iterations 1
time step continuity errors : sum local = 5.68764e-07, global = 3.57787e-17, cumulative = -2.24896e-16
rho max/min : 1.225 1.225
DILUPBiCGStab:  Solving for omega, Initial residual = 0.0100086, Final residual = 0.000106215, No Iterations 1
DILUPBiCGStab:  Solving for k, Initial residual = 0.0293243, Final residual = 0.00022383, No Iterations 1
ExecutionTime = 0.02 s  ClockTime = 0 s

Time = 15

DILUPBiCGStab:  Solving for h, Initial residual = 0.00930651, Final residual = 2.85482e-06, No Iterations 1
GAMG:  Solving for p_rgh, Initial residual = 4.96043e-05, Final residual = 5.8068e-09, No Iterations 1
time step continuity errors : sum local = 2.94084e-07, global = 1.44741e-16, cumulative = -8.01545e-17
rho max/min : 1.225 1.225
DILUPBiCGStab:  Solving for omega, Initial residual = 0.00911465, Final residual = 9.79799e-05, No Iterations 1
DILUPBiCGStab:  Solving for k, Initial residual = 0.0275324, Final residual = 0.00022493, No Iterations 1
ExecutionTime = 0.02 s  ClockTime = 0 s

Time = 16

DILUPBiCGStab:  Solving for h, Initial residual = 0.00910998, Final residual = 2.83776e-06, No Iterations 1
GAMG:  Solving for p_rgh, Initial residual = 4.32739e-05, Final residual = 8.1587e-09, No Iterations 1
time step continuity errors : sum local = 3.90583e-07, global = -2.38524e-17, cumulative = -1.04007e-16
rho max/min : 1.225 1.225
DILUPBiCGStab:  Solving for omega, Initial residual = 0.00831557, Final residual = 9.00498e-05, No Iterations 1
DILUPBiCGStab:  Solving for k, Initial residual = 0.0257081, Final residual = 0.000225514, No Iterations 1
ExecutionTime = 0.02 s  ClockTime = 0 s

Time = 17

DILUPBiCGStab:  Solving for h, Initial residual = 0.00888377, Final residual = 2.83316e-06, No Iterations 1
GAMG:  Solving for p_rgh, Initial residual = 3.89135e-05, Final residual = 4.25786e-09, No Iterations 1
time step continuity errors : sum local = 1.93962e-07, global = -1.97867e-16, cumulative = -3.01874e-16
rho max/min : 1.225 1.225
DILUPBiCGStab:  Solving for omega, Initial residual = 0.00760946, Final residual = 8.31547e-05, No Iterations 1
DILUPBiCGStab:  Solving for k, Initial residual = 0.0237036, Final residual = 0.000223276, No Iterations 1
ExecutionTime = 0.02 s  ClockTime = 0 s

Time = 18

DILUPBiCGStab:  Solving for h, Initial residual = 0.00863375, Final residual = 2.83583e-06, No Iterations 1
GAMG:  Solving for p_rgh, Initial residual = 3.63157e-05, Final residual = 9.58685e-10, No Iterations 1
time step continuity errors : sum local = 4.1786e-08, global = -9.37835e-17, cumulative = -3.95657e-16
rho max/min : 1.225 1.225
DILUPBiCGStab:  Solving for omega, Initial residual = 0.0069638, Final residual = 7.71638e-05, No Iterations 1
DILUPBiCGStab:  Solving for k, Initial residual = 0.0230299, Final residual = 0.00022455, No Iterations 1
ExecutionTime = 0.02 s  ClockTime = 0 s

Time = 19

DILUPBiCGStab:  Solving for h, Initial residual = 0.00835206, Final residual = 2.83685e-06, No Iterations 1
GAMG:  Solving for p_rgh, Initial residual = 3.65901e-05, Final residual = 1.07605e-09, No Iterations 1
time step continuity errors : sum local = 4.5047e-08, global = -1.74557e-16, cumulative = -5.70214e-16
rho max/min : 1.225 1.225
DILUPBiCGStab:  Solving for omega, Initial residual = 0.0063973, Final residual = 7.20161e-05, No Iterations 1
DILUPBiCGStab:  Solving for k, Initial residual = 0.022944, Final residual = 0.00022913, No Iterations 1
ExecutionTime = 0.02 s  ClockTime = 0 s

Time = 20

DILUPBiCGStab:  Solving for h, Initial residual = 0.00805244, Final residual = 2.83546e-06, No Iterations 1
GAMG:  Solving for p_rgh, Initial residual = 3.78448e-05, Final residual = 1.54748e-09, No Iterations 1
time step continuity errors : sum local = 6.23937e-08, global = 1.43657e-16, cumulative = -4.26557e-16
rho max/min : 1.225 1.225
DILUPBiCGStab:  Solving for omega, Initial residual = 0.00590015, Final residual = 6.74916e-05, No Iterations 1
DILUPBiCGStab:  Solving for k, Initial residual = 0.0229429, Final residual = 0.000235297, No Iterations 1
ExecutionTime = 0.03 s  ClockTime = 0 s

Time = 21

DILUPBiCGStab:  Solving for h, Initial residual = 0.00775711, Final residual = 2.83636e-06, No Iterations 1
GAMG:  Solving for p_rgh, Initial residual = 4.0148e-05, Final residual = 1.81841e-09, No Iterations 1
time step continuity errors : sum local = 7.07341e-08, global = -1.1872e-16, cumulative = -5.45277e-16
rho max/min : 1.225 1.225
DILUPBiCGStab:  Solving for omega, Initial residual = 0.00550879, Final residual = 6.39248e-05, No Iterations 1
DILUPBiCGStab:  Solving for k, Initial residual = 0.0235122, Final residual = 0.00024777, No Iterations 1
ExecutionTime = 0.03 s  ClockTime = 0 s

Time = 22

DILUPBiCGStab:  Solving for h, Initial residual = 0.00748243, Final residual = 2.84265e-06, No Iterations 1
GAMG:  Solving for p_rgh, Initial residual = 4.27669e-05, Final residual = 9.46339e-10, No Iterations 1
time step continuity errors : sum local = 3.55446e-08, global = 1.36609e-16, cumulative = -4.08668e-16
rho max/min : 1.225 1.225
DILUPBiCGStab:  Solving for omega, Initial residual = 0.00518605, Final residual = 6.09042e-05, No Iterations 1
DILUPBiCGStab:  Solving for k, Initial residual = 0.0249427, Final residual = 0.000260079, No Iterations 1
ExecutionTime = 0.03 s  ClockTime = 0 s

Time = 23

DILUPBiCGStab:  Solving for h, Initial residual = 0.00722798, Final residual = 2.8528e-06, No Iterations 1
GAMG:  Solving for p_rgh, Initial residual = 4.53161e-05, Final residual = 6.43665e-11, No Iterations 1
time step continuity errors : sum local = 1.88819e-09, global = 8.61941e-17, cumulative = -3.22474e-16
rho max/min : 1.225 1.225
DILUPBiCGStab:  Solving for omega, Initial residual = 0.00490639, Final residual = 5.82933e-05, No Iterations 1
DILUPBiCGStab:  Solving for k, Initial residual = 0.0268659, Final residual = 0.000273758, No Iterations 1
ExecutionTime = 0.03 s  ClockTime = 0 s

Time = 24

DILUPBiCGStab:  Solving for h, Initial residual = 0.00699353, Final residual = 2.86585e-06, No Iterations 1
GAMG:  Solving for p_rgh, Initial residual = 4.69986e-05, Final residual = 6.79678e-11, No Iterations 1
time step continuity errors : sum local = 2.10897e-09, global = -4.49944e-17, cumulative = -3.67468e-16
rho max/min : 1.225 1.225
DILUPBiCGStab:  Solving for omega, Initial residual = 0.00465936, Final residual = 5.59995e-05, No Iterations 1
DILUPBiCGStab:  Solving for k, Initial residual = 0.0290297, Final residual = 0.000289478, No Iterations 1
ExecutionTime = 0.03 s  ClockTime = 0 s

Time = 25

DILUPBiCGStab:  Solving for h, Initial residual = 0.00677977, Final residual = 2.8817e-06, No Iterations 1
GAMG:  Solving for p_rgh, Initial residual = 4.90724e-05, Final residual = 4.36107e-11, No Iterations 1
time step continuity errors : sum local = 1.34646e-09, global = 1.37152e-16, cumulative = -2.30316e-16
rho max/min : 1.225 1.225
DILUPBiCGStab:  Solving for omega, Initial residual = 0.00443813, Final residual = 5.39167e-05, No Iterations 1
DILUPBiCGStab:  Solving for k, Initial residual = 0.0315182, Final residual = 0.000308914, No Iterations 1
ExecutionTime = 0.03 s  ClockTime = 0 s

Time = 26

DILUPBiCGStab:  Solving for h, Initial residual = 0.00659255, Final residual = 2.90282e-06, No Iterations 1
GAMG:  Solving for p_rgh, Initial residual = 5.23178e-05, Final residual = 1.16349e-09, No Iterations 1
time step continuity errors : sum local = 3.80844e-08, global = -8.99888e-17, cumulative = -3.20305e-16
rho max/min : 1.225 1.225
DILUPBiCGStab:  Solving for omega, Initial residual = 0.00424122, Final residual = 5.19027e-05, No Iterations 1
DILUPBiCGStab:  Solving for k, Initial residual = 0.0341373, Final residual = 0.000328844, No Iterations 1
ExecutionTime = 0.03 s  ClockTime = 0 s

Time = 27

DILUPBiCGStab:  Solving for h, Initial residual = 0.00642686, Final residual = 2.92719e-06, No Iterations 1
GAMG:  Solving for p_rgh, Initial residual = 5.53339e-05, Final residual = 9.73703e-10, No Iterations 1
time step continuity errors : sum local = 3.08082e-08, global = 9.48677e-17, cumulative = -2.25438e-16
rho max/min : 1.225 1.225
DILUPBiCGStab:  Solving for omega, Initial residual = 0.00408503, Final residual = 5.04833e-05, No Iterations 1
DILUPBiCGStab:  Solving for k, Initial residual = 0.0368221, Final residual = 0.000352155, No Iterations 1
ExecutionTime = 0.03 s  ClockTime = 0 s

Time = 28

DILUPBiCGStab:  Solving for h, Initial residual = 0.00628165, Final residual = 2.95451e-06, No Iterations 1
GAMG:  Solving for p_rgh, Initial residual = 5.75456e-05, Final residual = 9.49674e-10, No Iterations 1
time step continuity errors : sum local = 2.89679e-08, global = -4.19586e-16, cumulative = -6.45024e-16
rho max/min : 1.225 1.225
DILUPBiCGStab:  Solving for omega, Initial residual = 0.00397089, Final residual = 4.92723e-05, No Iterations 1
DILUPBiCGStab:  Solving for k, Initial residual = 0.0394477, Final residual = 0.000375859, No Iterations 1
ExecutionTime = 0.03 s  ClockTime = 0 s

Time = 29

DILUPBiCGStab:  Solving for h, Initial residual = 0.00615987, Final residual = 2.98638e-06, No Iterations 1
GAMG:  Solving for p_rgh, Initial residual = 5.89316e-05, Final residual = 4.56931e-10, No Iterations 1
time step continuity errors : sum local = 1.35249e-08, global = -1.36067e-16, cumulative = -7.81091e-16
rho max/min : 1.225 1.225
DILUPBiCGStab:  Solving for omega, Initial residual = 0.00386708, Final residual = 4.80646e-05, No Iterations 1
DILUPBiCGStab:  Solving for k, Initial residual = 0.0420984, Final residual = 0.00040201, No Iterations 1
ExecutionTime = 0.04 s  ClockTime = 0 s

Time = 30

DILUPBiCGStab:  Solving for h, Initial residual = 0.00605828, Final residual = 3.02173e-06, No Iterations 1
GAMG:  Solving for p_rgh, Initial residual = 6.13894e-05, Final residual = 2.32251e-09, No Iterations 1
time step continuity errors : sum local = 6.61492e-08, global = -9.75782e-17, cumulative = -8.78669e-16
rho max/min : 1.225 1.225
DILUPBiCGStab:  Solving for omega, Initial residual = 0.00375481, Final residual = 4.68601e-05, No Iterations 1
DILUPBiCGStab:  Solving for k, Initial residual = 0.0447454, Final residual = 0.000428437, No Iterations 1
ExecutionTime = 0.04 s  ClockTime = 0 s

Time = 31

DILUPBiCGStab:  Solving for h, Initial residual = 0.00596991, Final residual = 3.05556e-06, No Iterations 1
GAMG:  Solving for p_rgh, Initial residual = 6.39036e-05, Final residual = 1.51826e-09, No Iterations 1
time step continuity errors : sum local = 4.15839e-08, global = -2.00577e-16, cumulative = -1.07925e-15
rho max/min : 1.225 1.225
DILUPBiCGStab:  Solving for omega, Initial residual = 0.00363541, Final residual = 4.56771e-05, No Iterations 1
DILUPBiCGStab:  Solving for k, Initial residual = 0.0471624, Final residual = 0.000454016, No Iterations 1
ExecutionTime = 0.04 s  ClockTime = 0 s

Time = 32

DILUPBiCGStab:  Solving for h, Initial residual = 0.00588738, Final residual = 3.08948e-06, No Iterations 1
GAMG:  Solving for p_rgh, Initial residual = 6.59841e-05, Final residual = 2.90228e-10, No Iterations 1
time step continuity errors : sum local = 7.64085e-09, global = -1.68051e-17, cumulative = -1.09605e-15
rho max/min : 1.225 1.225
DILUPBiCGStab:  Solving for omega, Initial residual = 0.00353202, Final residual = 4.45339e-05, No Iterations 1
DILUPBiCGStab:  Solving for k, Initial residual = 0.049506, Final residual = 0.000479699, No Iterations 1
ExecutionTime = 0.04 s  ClockTime = 0 s

Time = 33

DILUPBiCGStab:  Solving for h, Initial residual = 0.00580942, Final residual = 3.12306e-06, No Iterations 1
GAMG:  Solving for p_rgh, Initial residual = 6.77808e-05, Final residual = 2.46697e-10, No Iterations 1
time step continuity errors : sum local = 6.22589e-09, global = 6.28837e-17, cumulative = -1.03317e-15
rho max/min : 1.225 1.225
DILUPBiCGStab:  Solving for omega, Initial residual = 0.00343782, Final residual = 4.34448e-05, No Iterations 1
DILUPBiCGStab:  Solving for k, Initial residual = 0.051841, Final residual = 0.000506022, No Iterations 1
ExecutionTime = 0.04 s  ClockTime = 0 s

Time = 34

DILUPBiCGStab:  Solving for h, Initial residual = 0.00573722, Final residual = 3.15693e-06, No Iterations 1
GAMG:  Solving for p_rgh, Initial residual = 6.93783e-05, Final residual = 2.9443e-10, No Iterations 1
time step continuity errors : sum local = 7.12755e-09, global = 4.87891e-18, cumulative = -1.02829e-15
rho max/min : 1.225 1.225
DILUPBiCGStab:  Solving for omega, Initial residual = 0.00334196, Final residual = 4.22503e-05, No Iterations 1
DILUPBiCGStab:  Solving for k, Initial residual = 0.0542117, Final residual = 0.000533253, No Iterations 1
ExecutionTime = 0.04 s  ClockTime = 0 s

Time = 35

DILUPBiCGStab:  Solving for h, Initial residual = 0.00566968, Final residual = 3.1911e-06, No Iterations 1
GAMG:  Solving for p_rgh, Initial residual = 7.08802e-05, Final residual = 2.3385e-10, No Iterations 1
time step continuity errors : sum local = 5.41959e-09, global = -1.22515e-16, cumulative = -1.1508e-15
rho max/min : 1.225 1.225
DILUPBiCGStab:  Solving for omega, Initial residual = 0.00325095, Final residual = 4.10192e-05, No Iterations 1
DILUPBiCGStab:  Solving for k, Initial residual = 0.0566658, Final residual = 0.000561676, No Iterations 1
ExecutionTime = 0.04 s  ClockTime = 0 s

Time = 36

DILUPBiCGStab:  Solving for h, Initial residual = 0.00560524, Final residual = 3.2252e-06, No Iterations 1
GAMG:  Solving for p_rgh, Initial residual = 7.24851e-05, Final residual = 5.77993e-11, No Iterations 1
time step continuity errors : sum local = 1.27493e-09, global = 8.5652e-17, cumulative = -1.06515e-15
rho max/min : 1.225 1.225
DILUPBiCGStab:  Solving for omega, Initial residual = 0.00316612, Final residual = 3.97472e-05, No Iterations 1
DILUPBiCGStab:  Solving for k, Initial residual = 0.0592952, Final residual = 0.000592003, No Iterations 1
ExecutionTime = 0.04 s  ClockTime = 0 s

Time = 37

DILUPBiCGStab:  Solving for h, Initial residual = 0.0055526, Final residual = 3.26336e-06, No Iterations 1
GAMG:  Solving for p_rgh, Initial residual = 7.42667e-05, Final residual = 3.03913e-11, No Iterations 1
time step continuity errors : sum local = 5.21774e-10, global = 1.38778e-16, cumulative = -9.26374e-16
rho max/min : 1.225 1.225
DILUPBiCGStab:  Solving for omega, Initial residual = 0.00512524, Final residual = 3.15565e-05, No Iterations 1
DILUPBiCGStab:  Solving for k, Initial residual = 0.0859106, Final residual = 0.000570639, No Iterations 1
ExecutionTime = 0.04 s  ClockTime = 0 s

Time = 38

DILUPBiCGStab:  Solving for h, Initial residual = 0.00581751, Final residual = 2.97096e-06, No Iterations 1
GAMG:  Solving for p_rgh, Initial residual = 0.000103032, Final residual = 3.84875e-09, No Iterations 1
time step continuity errors : sum local = 1.00162e-07, global = 4.33681e-17, cumulative = -8.83006e-16
rho max/min : 1.225 1.225
DILUPBiCGStab:  Solving for omega, Initial residual = 0.00932132, Final residual = 3.64328e-05, No Iterations 1
DILUPBiCGStab:  Solving for k, Initial residual = 0.0875458, Final residual = 0.000553795, No Iterations 1
ExecutionTime = 0.04 s  ClockTime = 0 s

Time = 39

DILUPBiCGStab:  Solving for h, Initial residual = 0.00576989, Final residual = 3.39071e-06, No Iterations 1
GAMG:  Solving for p_rgh, Initial residual = 9.77496e-05, Final residual = 2.94232e-09, No Iterations 1
time step continuity errors : sum local = 6.78209e-08, global = -3.38271e-16, cumulative = -1.22128e-15
rho max/min : 1.225 1.225
DILUPBiCGStab:  Solving for omega, Initial residual = 0.00866787, Final residual = 3.33233e-05, No Iterations 1
DILUPBiCGStab:  Solving for k, Initial residual = 0.059584, Final residual = 0.000608145, No Iterations 1
ExecutionTime = 0.04 s  ClockTime = 0 s

Time = 40

DILUPBiCGStab:  Solving for h, Initial residual = 0.00525798, Final residual = 3.18666e-06, No Iterations 1
GAMG:  Solving for p_rgh, Initial residual = 8.50967e-05, Final residual = 7.01602e-09, No Iterations 1
time step continuity errors : sum local = 1.55365e-07, global = -2.71051e-16, cumulative = -1.49233e-15
rho max/min : 1.225 1.225
DILUPBiCGStab:  Solving for omega, Initial residual = 0.00363371, Final residual = 3.50457e-05, No Iterations 1
DILUPBiCGStab:  Solving for k, Initial residual = 0.0617351, Final residual = 0.000635252, No Iterations 1
ExecutionTime = 0.04 s  ClockTime = 0 s

Time = 41

DILUPBiCGStab:  Solving for h, Initial residual = 0.00514758, Final residual = 3.26259e-06, No Iterations 1
GAMG:  Solving for p_rgh, Initial residual = 7.79171e-05, Final residual = 1.60163e-09, No Iterations 1
time step continuity errors : sum local = 3.33823e-08, global = 2.1684e-18, cumulative = -1.49016e-15
rho max/min : 1.225 1.225
DILUPBiCGStab:  Solving for omega, Initial residual = 0.00300481, Final residual = 3.48096e-05, No Iterations 1
DILUPBiCGStab:  Solving for k, Initial residual = 0.0645241, Final residual = 0.00066681, No Iterations 1
ExecutionTime = 0.04 s  ClockTime = 0 s

Time = 42

DILUPBiCGStab:  Solving for h, Initial residual = 0.00506559, Final residual = 3.32503e-06, No Iterations 1
GAMG:  Solving for p_rgh, Initial residual = 7.73422e-05, Final residual = 2.31587e-09, No Iterations 1
time step continuity errors : sum local = 4.57956e-08, global = 5.20417e-17, cumulative = -1.43812e-15
rho max/min : 1.225 1.225
DILUPBiCGStab:  Solving for omega, Initial residual = 0.00289492, Final residual = 3.33187e-05, No Iterations 1
DILUPBiCGStab:  Solving for k, Initial residual = 0.068056, Final residual = 0.000702241, No Iterations 1
ExecutionTime = 0.05 s  ClockTime = 0 s

Time = 43

DILUPBiCGStab:  Solving for h, Initial residual = 0.00500365, Final residual = 3.37942e-06, No Iterations 1
GAMG:  Solving for p_rgh, Initial residual = 7.6426e-05, Final residual = 3.27912e-09, No Iterations 1
time step continuity errors : sum local = 6.13803e-08, global = -7.04732e-18, cumulative = -1.44517e-15
rho max/min : 1.225 1.225
DILUPBiCGStab:  Solving for omega, Initial residual = 0.00278281, Final residual = 3.18875e-05, No Iterations 1
DILUPBiCGStab:  Solving for k, Initial residual = 0.0723045, Final residual = 0.000742108, No Iterations 1
ExecutionTime = 0.05 s  ClockTime = 0 s

Time = 44

DILUPBiCGStab:  Solving for h, Initial residual = 0.00501449, Final residual = 3.46118e-06, No Iterations 1
GAMG:  Solving for p_rgh, Initial residual = 7.60164e-05, Final residual = 2.24076e-09, No Iterations 1
time step continuity errors : sum local = 3.9602e-08, global = -4.06576e-17, cumulative = -1.48582e-15
rho max/min : 1.225 1.225
DILUPBiCGStab:  Solving for omega, Initial residual = 0.00270227, Final residual = 3.04219e-05, No Iterations 1
DILUPBiCGStab:  Solving for k, Initial residual = 0.0761752, Final residual = 0.000774275, No Iterations 1
ExecutionTime = 0.05 s  ClockTime = 0 s

Time = 45

DILUPBiCGStab:  Solving for h, Initial residual = 0.00510132, Final residual = 3.54374e-06, No Iterations 1
GAMG:  Solving for p_rgh, Initial residual = 7.68106e-05, Final residual = 1.97872e-09, No Iterations 1
time step continuity errors : sum local = 3.28961e-08, global = 6.39679e-17, cumulative = -1.42185e-15
rho max/min : 1.225 1.225
DILUPBiCGStab:  Solving for omega, Initial residual = 0.00479313, Final residual = 2.50502e-05, No Iterations 1
DILUPBiCGStab:  Solving for k, Initial residual = 0.114517, Final residual = 0.000702263, No Iterations 1
ExecutionTime = 0.05 s  ClockTime = 0 s

Time = 46

DILUPBiCGStab:  Solving for h, Initial residual = 0.00517307, Final residual = 3.08038e-06, No Iterations 1
GAMG:  Solving for p_rgh, Initial residual = 0.0001236, Final residual = 2.02757e-09, No Iterations 1
time step continuity errors : sum local = 4.19777e-08, global = 1.43657e-16, cumulative = -1.2782e-15
rho max/min : 1.225 1.225
DILUPBiCGStab:  Solving for omega, Initial residual = 0.00853619, Final residual = 3.05209e-05, No Iterations 1
DILUPBiCGStab:  Solving for k, Initial residual = 0.112278, Final residual = 0.00068213, No Iterations 1
ExecutionTime = 0.05 s  ClockTime = 0 s

Time = 47

DILUPBiCGStab:  Solving for h, Initial residual = 0.00494438, Final residual = 3.46208e-06, No Iterations 1
GAMG:  Solving for p_rgh, Initial residual = 0.000103146, Final residual = 8.86017e-09, No Iterations 1
time step continuity errors : sum local = 1.6398e-07, global = -1.25225e-16, cumulative = -1.40342e-15
rho max/min : 1.225 1.225
DILUPBiCGStab:  Solving for omega, Initial residual = 0.00730668, Final residual = 2.61465e-05, No Iterations 1
DILUPBiCGStab:  Solving for k, Initial residual = 0.0745311, Final residual = 0.000779285, No Iterations 1
ExecutionTime = 0.05 s  ClockTime = 0 s

Time = 48

DILUPBiCGStab:  Solving for h, Initial residual = 0.00472076, Final residual = 3.3675e-06, No Iterations 1
GAMG:  Solving for p_rgh, Initial residual = 0.000102271, Final residual = 7.67546e-09, No Iterations 1
time step continuity errors : sum local = 1.3292e-07, global = -2.97071e-16, cumulative = -1.70049e-15
rho max/min : 1.225 1.225
DILUPBiCGStab:  Solving for omega, Initial residual = 0.00298632, Final residual = 2.65377e-05, No Iterations 1
DILUPBiCGStab:  Solving for k, Initial residual = 0.0776663, Final residual = 0.000818445, No Iterations 1
ExecutionTime = 0.05 s  ClockTime = 0 s

Time = 49

DILUPBiCGStab:  Solving for h, Initial residual = 0.00462766, Final residual = 3.45553e-06, No Iterations 1
GAMG:  Solving for p_rgh, Initial residual = 7.75138e-05, Final residual = 6.30009e-09, No Iterations 1
time step continuity errors : sum local = 1.03589e-07, global = -1.89193e-16, cumulative = -1.88969e-15
rho max/min : 1.225 1.225
DILUPBiCGStab:  Solving for omega, Initial residual = 0.00247763, Final residual = 2.59486e-05, No Iterations 1
DILUPBiCGStab:  Solving for k, Initial residual = 0.0832793, Final residual = 0.000859969, No Iterations 1
ExecutionTime = 0.05 s  ClockTime = 0 s

Time = 50

DILUPBiCGStab:  Solving for h, Initial residual = 0.0045684, Final residual = 3.53301e-06, No Iterations 1
GAMG:  Solving for p_rgh, Initial residual = 7.4712e-05, Final residual = 5.07764e-10, No Iterations 1
time step continuity errors : sum local = 6.38746e-09, global = 2.25514e-16, cumulative = -1.66417e-15
rho max/min : 1.225 1.225
DILUPBiCGStab:  Solving for omega, Initial residual = 0.00242094, Final residual = 2.44844e-05, No Iterations 1
DILUPBiCGStab:  Solving for k, Initial residual = 0.0872197, Final residual = 0.000874474, No Iterations 1
ExecutionTime = 0.05 s  ClockTime = 0 s

Time = 51

DILUPBiCGStab:  Solving for h, Initial residual = 0.00466999, Final residual = 3.67891e-06, No Iterations 1
GAMG:  Solving for p_rgh, Initial residual = 7.77215e-05, Final residual = 3.11102e-09, No Iterations 1
time step continuity errors : sum local = 4.48169e-08, global = -3.79471e-17, cumulative = -1.70212e-15
rho max/min : 1.225 1.225
DILUPBiCGStab:  Solving for omega, Initial residual = 0.00234913, Final residual = 2.30873e-05, No Iterations 1
DILUPBiCGStab:  Solving for k, Initial residual = 0.0886207, Final residual = 0.000856485, No Iterations 1
ExecutionTime = 0.05 s  ClockTime = 0 s

Time = 52

DILUPBiCGStab:  Solving for h, Initial residual = 0.00489554, Final residual = 3.79744e-06, No Iterations 1
GAMG:  Solving for p_rgh, Initial residual = 8.23668e-05, Final residual = 6.10938e-09, No Iterations 1
time step continuity errors : sum local = 8.26113e-08, global = 3.42608e-16, cumulative = -1.35951e-15
rho max/min : 1.225 1.225
DILUPBiCGStab:  Solving for omega, Initial residual = 0.00476837, Final residual = 2.02478e-05, No Iterations 1
DILUPBiCGStab:  Solving for k, Initial residual = 0.146424, Final residual = 0.000779429, No Iterations 1
ExecutionTime = 0.05 s  ClockTime = 0 s

Time = 53

DILUPBiCGStab:  Solving for h, Initial residual = 0.00487171, Final residual = 3.17889e-06, No Iterations 1
GAMG:  Solving for p_rgh, Initial residual = 0.000148228, Final residual = 3.32185e-10, No Iterations 1
time step continuity errors : sum local = 5.67163e-09, global = 3.37187e-16, cumulative = -1.02233e-15
rho max/min : 1.225 1.225
DILUPBiCGStab:  Solving for omega, Initial residual = 0.00866278, Final residual = 2.55519e-05, No Iterations 1
DILUPBiCGStab:  Solving for k, Initial residual = 0.149584, Final residual = 0.000808384, No Iterations 1
ExecutionTime = 0.05 s  ClockTime = 0 s

Time = 54

DILUPBiCGStab:  Solving for h, Initial residual = 0.00455668, Final residual = 3.58816e-06, No Iterations 1
GAMG:  Solving for p_rgh, Initial residual = 0.000117262, Final residual = 9.13324e-09, No Iterations 1
time step continuity errors : sum local = 1.40864e-07, global = -1.52873e-16, cumulative = -1.1752e-15
rho max/min : 1.225 1.225
DILUPBiCGStab:  Solving for omega, Initial residual = 0.00713693, Final residual = 2.07025e-05, No Iterations 1
DILUPBiCGStab:  Solving for k, Initial residual = 0.0942559, Final residual = 0.000963845, No Iterations 1
ExecutionTime = 0.05 s  ClockTime = 0 s

Time = 55

DILUPBiCGStab:  Solving for h, Initial residual = 0.00435954, Final residual = 3.5208e-06, No Iterations 1
GAMG:  Solving for p_rgh, Initial residual = 9.90136e-05, Final residual = 2.92492e-08, No Iterations 1
time step continuity errors : sum local = 4.26004e-07, global = -1.9082e-16, cumulative = -1.36602e-15
rho max/min : 1.225 1.225
DILUPBiCGStab:  Solving for omega, Initial residual = 0.00262223, Final residual = 2.03993e-05, No Iterations 1
DILUPBiCGStab:  Solving for k, Initial residual = 0.0973584, Final residual = 0.000988983, No Iterations 1
ExecutionTime = 0.06 s  ClockTime = 0 s

Time = 56

DILUPBiCGStab:  Solving for h, Initial residual = 0.00427889, Final residual = 3.62812e-06, No Iterations 1
GAMG:  Solving for p_rgh, Initial residual = 9.04618e-05, Final residual = 1.17694e-08, No Iterations 1
time step continuity errors : sum local = 1.6037e-07, global = -4.71628e-17, cumulative = -1.41318e-15
rho max/min : 1.225 1.225
DILUPBiCGStab:  Solving for omega, Initial residual = 0.00209724, Final residual = 1.96197e-05, No Iterations 1
DILUPBiCGStab:  Solving for k, Initial residual = 0.100336, Final residual = 0.000969891, No Iterations 1
ExecutionTime = 0.06 s  ClockTime = 0 s

Time = 57

DILUPBiCGStab:  Solving for h, Initial residual = 0.00433775, Final residual = 3.79321e-06, No Iterations 1
GAMG:  Solving for p_rgh, Initial residual = 9.04714e-05, Final residual = 5.6451e-09, No Iterations 1
time step continuity errors : sum local = 7.1454e-08, global = -1.94072e-16, cumulative = -1.60725e-15
rho max/min : 1.225 1.225
DILUPBiCGStab:  Solving for omega, Initial residual = 0.00208512, Final residual = 1.83157e-05, No Iterations 1
DILUPBiCGStab:  Solving for k, Initial residual = 0.100803, Final residual = 0.000917992, No Iterations 1
ExecutionTime = 0.06 s  ClockTime = 0 s

Time = 58

DILUPBiCGStab:  Solving for h, Initial residual = 0.00458766, Final residual = 3.96455e-06, No Iterations 1
GAMG:  Solving for p_rgh, Initial residual = 9.35277e-05, Final residual = 1.43499e-08, No Iterations 1
time step continuity errors : sum local = 1.67272e-07, global = -2.05998e-17, cumulative = -1.62785e-15
rho max/min : 1.225 1.225
DILUPBiCGStab:  Solving for omega, Initial residual = 0.00430176, Final residual = 1.70709e-05, No Iterations 1
DILUPBiCGStab:  Solving for k, Initial residual = 0.175111, Final residual = 0.000859389, No Iterations 1
ExecutionTime = 0.06 s  ClockTime = 0 s

Time = 59

DILUPBiCGStab:  Solving for h, Initial residual = 0.00455425, Final residual = 3.29094e-06, No Iterations 1
GAMG:  Solving for p_rgh, Initial residual = 0.000169827, Final residual = 8.24496e-09, No Iterations 1
time step continuity errors : sum local = 1.20621e-07, global = 4.98733e-17, cumulative = -1.57798e-15
rho max/min : 1.225 1.225
DILUPBiCGStab:  Solving for omega, Initial residual = 0.00630996, Final residual = 2.30903e-05, No Iterations 1
DILUPBiCGStab:  Solving for k, Initial residual = 0.107821, Final residual = 0.000987763, No Iterations 1
ExecutionTime = 0.06 s  ClockTime = 0 s

Time = 60

DILUPBiCGStab:  Solving for h, Initial residual = 0.00453173, Final residual = 3.45832e-06, No Iterations 1
GAMG:  Solving for p_rgh, Initial residual = 0.000151206, Final residual = 4.36203e-09, No Iterations 1
time step continuity errors : sum local = 5.76576e-08, global = -5.18249e-16, cumulative = -2.09623e-15
rho max/min : 1.225 1.225
DILUPBiCGStab:  Solving for omega, Initial residual = 0.00783123, Final residual = 1.39088e-05, No Iterations 1
DILUPBiCGStab:  Solving for k, Initial residual = 0.21581, Final residual = 0.000919705, No Iterations 1
ExecutionTime = 0.06 s  ClockTime = 0 s

Time = 61

DILUPBiCGStab:  Solving for h, Initial residual = 0.00427439, Final residual = 3.80645e-06, No Iterations 1
GAMG:  Solving for p_rgh, Initial residual = 0.000223251, Final residual = 1.53044e-09, No Iterations 1
time step continuity errors : sum local = 1.88517e-08, global = -1.4962e-16, cumulative = -2.24585e-15
rho max/min : 1.225 1.225
DILUPBiCGStab:  Solving for omega, Initial residual = 0.0112364, Final residual = 1.50895e-05, No Iterations 1
DILUPBiCGStab:  Solving for k, Initial residual = 0.119598, Final residual = 0.0010966, No Iterations 1
ExecutionTime = 0.06 s  ClockTime = 0 s

Time = 62

DILUPBiCGStab:  Solving for h, Initial residual = 0.00405267, Final residual = 3.77829e-06, No Iterations 1
GAMG:  Solving for p_rgh, Initial residual = 0.000154838, Final residual = 4.70741e-08, No Iterations 1
time step continuity errors : sum local = 5.47363e-07, global = 9.1073e-17, cumulative = -2.15478e-15
rho max/min : 1.225 1.225
DILUPBiCGStab:  Solving for omega, Initial residual = 0.00257176, Final residual = 1.49785e-05, No Iterations 1
DILUPBiCGStab:  Solving for k, Initial residual = 0.11332, Final residual = 0.0010221, No Iterations 1
ExecutionTime = 0.06 s  ClockTime = 0 s

Time = 63

DILUPBiCGStab:  Solving for h, Initial residual = 0.00415834, Final residual = 4.01545e-06, No Iterations 1
GAMG:  Solving for p_rgh, Initial residual = 0.000123333, Final residual = 8.0281e-09, No Iterations 1
time step continuity errors : sum local = 8.63443e-08, global = 9.6494e-17, cumulative = -2.05828e-15
rho max/min : 1.225 1.225
DILUPBiCGStab:  Solving for omega, Initial residual = 0.00179908, Final residual = 1.47503e-05, No Iterations 1
DILUPBiCGStab:  Solving for k, Initial residual = 0.1121, Final residual = 0.000937704, No Iterations 1
ExecutionTime = 0.06 s  ClockTime = 0 s

Time = 64

DILUPBiCGStab:  Solving for h, Initial residual = 0.00431508, Final residual = 4.21476e-06, No Iterations 1
GAMG:  Solving for p_rgh, Initial residual = 0.000123617, Final residual = 1.12446e-08, No Iterations 1
time step continuity errors : sum local = 1.09933e-07, global = 2.34188e-16, cumulative = -1.82409e-15
rho max/min : 1.225 1.225
DILUPBiCGStab:  Solving for omega, Initial residual = 0.00599433, Final residual = 1.67429e-05, No Iterations 1
DILUPBiCGStab:  Solving for k, Initial residual = 0.220114, Final residual = 0.000925206, No Iterations 1
ExecutionTime = 0.06 s  ClockTime = 0 s

Time = 65

DILUPBiCGStab:  Solving for h, Initial residual = 0.00424436, Final residual = 3.37322e-06, No Iterations 1
GAMG:  Solving for p_rgh, Initial residual = 0.000202573, Final residual = 1.92146e-08, No Iterations 1
time step continuity errors : sum local = 2.48325e-07, global = 6.50521e-17, cumulative = -1.75904e-15
rho max/min : 1.225 1.225
DILUPBiCGStab:  Solving for omega, Initial residual = 0.00837253, Final residual = 2.19595e-05, No Iterations 1
DILUPBiCGStab:  Solving for k, Initial residual = 0.125873, Final residual = 0.00107162, No Iterations 1
ExecutionTime = 0.06 s  ClockTime = 0 s

Time = 66

DILUPBiCGStab:  Solving for h, Initial residual = 0.0042848, Final residual = 3.61225e-06, No Iterations 1
GAMG:  Solving for p_rgh, Initial residual = 0.00018404, Final residual = 1.0388e-08, No Iterations 1
time step continuity errors : sum local = 1.1872e-07, global = 1.52873e-16, cumulative = -1.60617e-15
rho max/min : 1.225 1.225
DILUPBiCGStab:  Solving for omega, Initial residual = 0.0081191, Final residual = 1.18564e-05, No Iterations 1
DILUPBiCGStab:  Solving for k, Initial residual = 0.256004, Final residual = 0.00100237, No Iterations 1
ExecutionTime = 0.06 s  ClockTime = 0 s

Time = 67

DILUPBiCGStab:  Solving for h, Initial residual = 0.00401153, Final residual = 3.95986e-06, No Iterations 1
GAMG:  Solving for p_rgh, Initial residual = 0.000261799, Final residual = 1.92441e-08, No Iterations 1
time step continuity errors : sum local = 2.05042e-07, global = 9.75782e-18, cumulative = -1.59641e-15
rho max/min : 1.225 1.225
DILUPBiCGStab:  Solving for omega, Initial residual = 0.0112112, Final residual = 1.22877e-05, No Iterations 1
DILUPBiCGStab:  Solving for k, Initial residual = 0.137514, Final residual = 0.00117431, No Iterations 1
ExecutionTime = 0.06 s  ClockTime = 0 s

Time = 68

DILUPBiCGStab:  Solving for h, Initial residual = 0.0038309, Final residual = 3.97728e-06, No Iterations 1
GAMG:  Solving for p_rgh, Initial residual = 0.000178116, Final residual = 5.9969e-08, No Iterations 1
time step continuity errors : sum local = 5.91092e-07, global = 1.40946e-17, cumulative = -1.58232e-15
rho max/min : 1.225 1.225
DILUPBiCGStab:  Solving for omega, Initial residual = 0.00246032, Final residual = 1.21847e-05, No Iterations 1
DILUPBiCGStab:  Solving for k, Initial residual = 0.125735, Final residual = 0.00103934, No Iterations 1
ExecutionTime = 0.07 s  ClockTime = 0 s

Time = 69

DILUPBiCGStab:  Solving for h, Initial residual = 0.00400374, Final residual = 4.2805e-06, No Iterations 1
GAMG:  Solving for p_rgh, Initial residual = 0.000137694, Final residual = 1.23213e-08, No Iterations 1
time step continuity errors : sum local = 1.11315e-07, global = -1.17094e-16, cumulative = -1.69941e-15
rho max/min : 1.225 1.225
DILUPBiCGStab:  Solving for omega, Initial residual = 0.00156077, Final residual = 1.23134e-05, No Iterations 1
DILUPBiCGStab:  Solving for k, Initial residual = 0.122108, Final residual = 0.000918921, No Iterations 1
ExecutionTime = 0.07 s  ClockTime = 0 s

Time = 70

DILUPBiCGStab:  Solving for h, Initial residual = 0.00420942, Final residual = 4.4857e-06, No Iterations 1
GAMG:  Solving for p_rgh, Initial residual = 0.000128889, Final residual = 3.10339e-08, No Iterations 1
time step continuity errors : sum local = 2.54263e-07, global = 2.14672e-16, cumulative = -1.48474e-15
rho max/min : 1.225 1.225
DILUPBiCGStab:  Solving for omega, Initial residual = 0.00958733, Final residual = 1.87096e-05, No Iterations 1
DILUPBiCGStab:  Solving for k, Initial residual = 0.266148, Final residual = 0.000922742, No Iterations 1
ExecutionTime = 0.07 s  ClockTime = 0 s

Time = 71

DILUPBiCGStab:  Solving for h, Initial residual = 0.00406703, Final residual = 3.43021e-06, No Iterations 1
GAMG:  Solving for p_rgh, Initial residual = 0.000224915, Final residual = 2.52462e-08, No Iterations 1
time step continuity errors : sum local = 2.88971e-07, global = -1.21431e-16, cumulative = -1.60617e-15
rho max/min : 1.225 1.225
DILUPBiCGStab:  Solving for omega, Initial residual = 0.0129088, Final residual = 2.22896e-05, No Iterations 1
DILUPBiCGStab:  Solving for k, Initial residual = 0.139904, Final residual = 0.0010761, No Iterations 1
ExecutionTime = 0.07 s  ClockTime = 0 s

Time = 72

DILUPBiCGStab:  Solving for h, Initial residual = 0.00411125, Final residual = 3.76134e-06, No Iterations 1
GAMG:  Solving for p_rgh, Initial residual = 0.000197023, Final residual = 4.54799e-09, No Iterations 1
time step continuity errors : sum local = 4.50034e-08, global = 5.85469e-17, cumulative = -1.54762e-15
rho max/min : 1.225 1.225
DILUPBiCGStab:  Solving for omega, Initial residual = 0.0088393, Final residual = 1.01582e-05, No Iterations 1
DILUPBiCGStab:  Solving for k, Initial residual = 0.29424, Final residual = 0.000992233, No Iterations 1
ExecutionTime = 0.07 s  ClockTime = 0 s

Time = 73

DILUPBiCGStab:  Solving for h, Initial residual = 0.00380193, Final residual = 4.14144e-06, No Iterations 1
GAMG:  Solving for p_rgh, Initial residual = 0.000287505, Final residual = 2.42365e-08, No Iterations 1
time step continuity errors : sum local = 2.23491e-07, global = -8.94467e-17, cumulative = -1.63707e-15
rho max/min : 1.225 1.225
DILUPBiCGStab:  Solving for omega, Initial residual = 0.0120018, Final residual = 9.89484e-06, No Iterations 1
DILUPBiCGStab:  Solving for k, Initial residual = 0.152292, Final residual = 0.00117852, No Iterations 1
ExecutionTime = 0.07 s  ClockTime = 0 s

Time = 74

DILUPBiCGStab:  Solving for h, Initial residual = 0.00367872, Final residual = 4.20925e-06, No Iterations 1
GAMG:  Solving for p_rgh, Initial residual = 0.000188873, Final residual = 8.42682e-08, No Iterations 1
time step continuity errors : sum local = 7.19283e-07, global = -2.71051e-17, cumulative = -1.66417e-15
rho max/min : 1.225 1.225
DILUPBiCGStab:  Solving for omega, Initial residual = 0.00239538, Final residual = 9.92551e-06, No Iterations 1
DILUPBiCGStab:  Solving for k, Initial residual = 0.13441, Final residual = 0.000996652, No Iterations 1
ExecutionTime = 0.07 s  ClockTime = 0 s

Time = 75

DILUPBiCGStab:  Solving for h, Initial residual = 0.00386344, Final residual = 4.537e-06, No Iterations 1
GAMG:  Solving for p_rgh, Initial residual = 0.00014795, Final residual = 2.01148e-08, No Iterations 1
time step continuity errors : sum local = 1.57436e-07, global = 1.27936e-16, cumulative = -1.53624e-15
rho max/min : 1.225 1.225
DILUPBiCGStab:  Solving for omega, Initial residual = 0.0014082, Final residual = 1.04314e-05, No Iterations 1
DILUPBiCGStab:  Solving for k, Initial residual = 0.125278, Final residual = 0.000834938, No Iterations 1
ExecutionTime = 0.07 s  ClockTime = 0 s

Time = 76

DILUPBiCGStab:  Solving for h, Initial residual = 0.00409263, Final residual = 4.74613e-06, No Iterations 1
GAMG:  Solving for p_rgh, Initial residual = 0.000136842, Final residual = 3.71421e-08, No Iterations 1
time step continuity errors : sum local = 2.6375e-07, global = 9.32414e-17, cumulative = -1.443e-15
rho max/min : 1.225 1.225
DILUPBiCGStab:  Solving for omega, Initial residual = 0.010791, Final residual = 1.83677e-05, No Iterations 1
DILUPBiCGStab:  Solving for k, Initial residual = 0.289098, Final residual = 0.000831171, No Iterations 1
ExecutionTime = 0.07 s  ClockTime = 0 s

Time = 77

DILUPBiCGStab:  Solving for h, Initial residual = 0.0039214, Final residual = 3.59278e-06, No Iterations 1
GAMG:  Solving for p_rgh, Initial residual = 0.000249636, Final residual = 3.18642e-08, No Iterations 1
time step continuity errors : sum local = 3.23467e-07, global = 2.60209e-17, cumulative = -1.41698e-15
rho max/min : 1.225 1.225
DILUPBiCGStab:  Solving for omega, Initial residual = 0.0146036, Final residual = 2.04395e-05, No Iterations 1
DILUPBiCGStab:  Solving for k, Initial residual = 0.141783, Final residual = 0.000974231, No Iterations 1
ExecutionTime = 0.07 s  ClockTime = 0 s

Time = 78

DILUPBiCGStab:  Solving for h, Initial residual = 0.00396896, Final residual = 3.96583e-06, No Iterations 1
GAMG:  Solving for p_rgh, Initial residual = 0.000218758, Final residual = 2.95512e-09, No Iterations 1
time step continuity errors : sum local = 2.56592e-08, global = 3.90313e-17, cumulative = -1.37794e-15
rho max/min : 1.225 1.225
DILUPBiCGStab:  Solving for omega, Initial residual = 0.00844876, Final residual = 8.40343e-06, No Iterations 1
DILUPBiCGStab:  Solving for k, Initial residual = 0.310466, Final residual = 0.000897931, No Iterations 1
ExecutionTime = 0.07 s  ClockTime = 0 s

Time = 79

DILUPBiCGStab:  Solving for h, Initial residual = 0.00368094, Final residual = 4.40849e-06, No Iterations 1
GAMG:  Solving for p_rgh, Initial residual = 0.000318027, Final residual = 3.76395e-08, No Iterations 1
time step continuity errors : sum local = 3.0457e-07, global = -1.18178e-16, cumulative = -1.49612e-15
rho max/min : 1.225 1.225
DILUPBiCGStab:  Solving for omega, Initial residual = 0.0114423, Final residual = 7.9897e-06, No Iterations 1
DILUPBiCGStab:  Solving for k, Initial residual = 0.154589, Final residual = 0.00107727, No Iterations 1
ExecutionTime = 0.07 s  ClockTime = 0 s

Time = 80

DILUPBiCGStab:  Solving for h, Initial residual = 0.00356706, Final residual = 4.4798e-06, No Iterations 1
GAMG:  Solving for p_rgh, Initial residual = 0.000201712, Final residual = 9.94164e-08, No Iterations 1
time step continuity errors : sum local = 7.45278e-07, global = 3.84892e-17, cumulative = -1.45763e-15
rho max/min : 1.225 1.225
DILUPBiCGStab:  Solving for omega, Initial residual = 0.00226633, Final residual = 7.95448e-06, No Iterations 1
DILUPBiCGStab:  Solving for k, Initial residual = 0.131139, Final residual = 0.000874283, No Iterations 1
ExecutionTime = 0.07 s  ClockTime = 0 s

Time = 81

DILUPBiCGStab:  Solving for h, Initial residual = 0.00375661, Final residual = 4.8355e-06, No Iterations 1
GAMG:  Solving for p_rgh, Initial residual = 0.000155215, Final residual = 2.92529e-08, No Iterations 1
time step continuity errors : sum local = 2.01256e-07, global = 1.71304e-16, cumulative = -1.28633e-15
rho max/min : 1.225 1.225
DILUPBiCGStab:  Solving for omega, Initial residual = 0.00121845, Final residual = 8.81801e-06, No Iterations 1
DILUPBiCGStab:  Solving for k, Initial residual = 0.117016, Final residual = 0.000696779, No Iterations 1
ExecutionTime = 0.08 s  ClockTime = 0 s

Time = 82

DILUPBiCGStab:  Solving for h, Initial residual = 0.00399376, Final residual = 5.06298e-06, No Iterations 1
GAMG:  Solving for p_rgh, Initial residual = 0.000136154, Final residual = 3.47307e-08, No Iterations 1
time step continuity errors : sum local = 2.19131e-07, global = 9.6494e-17, cumulative = -1.18984e-15
rho max/min : 1.225 1.225
DILUPBiCGStab:  Solving for omega, Initial residual = 0.00953252, Final residual = 1.55882e-05, No Iterations 1
DILUPBiCGStab:  Solving for k, Initial residual = 0.268868, Final residual = 0.000657837, No Iterations 1
ExecutionTime = 0.08 s  ClockTime = 0 s

Time = 83

DILUPBiCGStab:  Solving for h, Initial residual = 0.00386676, Final residual = 3.93568e-06, No Iterations 1
GAMG:  Solving for p_rgh, Initial residual = 0.000272819, Final residual = 3.9654e-08, No Iterations 1
time step continuity errors : sum local = 3.46623e-07, global = -2.27682e-17, cumulative = -1.2126e-15
rho max/min : 1.225 1.225
DILUPBiCGStab:  Solving for omega, Initial residual = 0.0130362, Final residual = 1.71862e-05, No Iterations 1
DILUPBiCGStab:  Solving for k, Initial residual = 0.128871, Final residual = 0.000786523, No Iterations 1
ExecutionTime = 0.08 s  ClockTime = 0 s

Time = 84

DILUPBiCGStab:  Solving for h, Initial residual = 0.0038691, Final residual = 4.26017e-06, No Iterations 1
GAMG:  Solving for p_rgh, Initial residual = 0.000235338, Final residual = 3.77948e-09, No Iterations 1
time step continuity errors : sum local = 2.86523e-08, global = -4.06576e-17, cumulative = -1.25326e-15
rho max/min : 1.225 1.225
DILUPBiCGStab:  Solving for omega, Initial residual = 0.00227832, Final residual = 7.37292e-06, No Iterations 1
DILUPBiCGStab:  Solving for k, Initial residual = 0.105569, Final residual = 0.000602305, No Iterations 1
ExecutionTime = 0.08 s  ClockTime = 0 s

Time = 85

DILUPBiCGStab:  Solving for h, Initial residual = 0.00393835, Final residual = 4.38507e-06, No Iterations 1
GAMG:  Solving for p_rgh, Initial residual = 0.000156455, Final residual = 1.6442e-08, No Iterations 1
time step continuity errors : sum local = 1.17189e-07, global = 1.34441e-16, cumulative = -1.11882e-15
rho max/min : 1.225 1.225
DILUPBiCGStab:  Solving for omega, Initial residual = 0.0128611, Final residual = 5.20359e-06, No Iterations 1
DILUPBiCGStab:  Solving for k, Initial residual = 0.283504, Final residual = 0.000530542, No Iterations 1
ExecutionTime = 0.08 s  ClockTime = 0 s

Time = 86

DILUPBiCGStab:  Solving for h, Initial residual = 0.00368749, Final residual = 4.91164e-06, No Iterations 1
GAMG:  Solving for p_rgh, Initial residual = 0.000512567, Final residual = 4.0297e-08, No Iterations 1
time step continuity errors : sum local = 2.66686e-07, global = -2.19009e-16, cumulative = -1.33783e-15
rho max/min : 1.225 1.225
DILUPBiCGStab:  Solving for omega, Initial residual = 0.0195263, Final residual = 5.90608e-06, No Iterations 1
DILUPBiCGStab:  Solving for k, Initial residual = 0.123473, Final residual = 0.000668096, No Iterations 1
ExecutionTime = 0.08 s  ClockTime = 0 s

Time = 87

DILUPBiCGStab:  Solving for h, Initial residual = 0.00370303, Final residual = 5.13227e-06, No Iterations 1
GAMG:  Solving for p_rgh, Initial residual = 0.000309056, Final residual = 1.28548e-07, No Iterations 1
time step continuity errors : sum local = 7.89559e-07, global = 1.13299e-16, cumulative = -1.22453e-15
rho max/min : 1.225 1.225
DILUPBiCGStab:  Solving for omega, Initial residual = 0.0022906, Final residual = 6.26519e-06, No Iterations 1
DILUPBiCGStab:  Solving for k, Initial residual = 0.100694, Final residual = 0.000528365, No Iterations 1
ExecutionTime = 0.08 s  ClockTime = 0 s

Time = 88

DILUPBiCGStab:  Solving for h, Initial residual = 0.00384206, Final residual = 5.41742e-06, No Iterations 1
GAMG:  Solving for p_rgh, Initial residual = 0.000203112, Final residual = 9.77851e-09, No Iterations 1
time step continuity errors : sum local = 5.56684e-08, global = -2.98156e-17, cumulative = -1.25435e-15
rho max/min : 1.225 1.225
DILUPBiCGStab:  Solving for omega, Initial residual = 0.00153981, Final residual = 7.5081e-06, No Iterations 1
DILUPBiCGStab:  Solving for k, Initial residual = 0.088253, Final residual = 0.000411723, No Iterations 1
ExecutionTime = 0.08 s  ClockTime = 0 s

Time = 89

DILUPBiCGStab:  Solving for h, Initial residual = 0.00403739, Final residual = 5.56243e-06, No Iterations 1
GAMG:  Solving for p_rgh, Initial residual = 0.000176364, Final residual = 8.01661e-08, No Iterations 1
time step continuity errors : sum local = 4.18526e-07, global = -1.33899e-16, cumulative = -1.38824e-15
rho max/min : 1.225 1.225
DILUPBiCGStab:  Solving for omega, Initial residual = 0.0138584, Final residual = 1.77901e-05, No Iterations 1
DILUPBiCGStab:  Solving for k, Initial residual = 0.242938, Final residual = 0.000402916, No Iterations 1
ExecutionTime = 0.08 s  ClockTime = 0 s

Time = 90

DILUPBiCGStab:  Solving for h, Initial residual = 0.00387412, Final residual = 4.24452e-06, No Iterations 1
GAMG:  Solving for p_rgh, Initial residual = 0.000320321, Final residual = 4.23529e-08, No Iterations 1
time step continuity errors : sum local = 3.33606e-07, global = 1.27394e-16, cumulative = -1.26085e-15
rho max/min : 1.225 1.225
DILUPBiCGStab:  Solving for omega, Initial residual = 0.0200426, Final residual = 1.83845e-05, No Iterations 1
DILUPBiCGStab:  Solving for k, Initial residual = 0.098455, Final residual = 0.000483021, No Iterations 1
ExecutionTime = 0.08 s  ClockTime = 0 s

Time = 91

DILUPBiCGStab:  Solving for h, Initial residual = 0.00383324, Final residual = 4.58239e-06, No Iterations 1
GAMG:  Solving for p_rgh, Initial residual = 0.000267273, Final residual = 6.43398e-09, No Iterations 1
time step continuity errors : sum local = 4.30703e-08, global = 1.32815e-16, cumulative = -1.12804e-15
rho max/min : 1.225 1.225
DILUPBiCGStab:  Solving for omega, Initial residual = 0.00244533, Final residual = 6.42066e-06, No Iterations 1
DILUPBiCGStab:  Solving for k, Initial residual = 0.0804316, Final residual = 0.000371806, No Iterations 1
ExecutionTime = 0.08 s  ClockTime = 0 s

Time = 92

DILUPBiCGStab:  Solving for h, Initial residual = 0.00386802, Final residual = 4.72673e-06, No Iterations 1
GAMG:  Solving for p_rgh, Initial residual = 0.000169553, Final residual = 2.61152e-08, No Iterations 1
time step continuity errors : sum local = 1.63823e-07, global = 3.25261e-17, cumulative = -1.09551e-15
rho max/min : 1.225 1.225
DILUPBiCGStab:  Solving for omega, Initial residual = 0.0131793, Final residual = 3.92158e-06, No Iterations 1
DILUPBiCGStab:  Solving for k, Initial residual = 0.244073, Final residual = 0.000332376, No Iterations 1
ExecutionTime = 0.08 s  ClockTime = 0 s

Time = 93

DILUPBiCGStab:  Solving for h, Initial residual = 0.00368529, Final residual = 5.35013e-06, No Iterations 1
GAMG:  Solving for p_rgh, Initial residual = 0.000584216, Final residual = 5.03371e-08, No Iterations 1
time step continuity errors : sum local = 2.93657e-07, global = -2.6563e-16, cumulative = -1.36114e-15
rho max/min : 1.225 1.225
DILUPBiCGStab:  Solving for omega, Initial residual = 0.0206217, Final residual = 4.54207e-06, No Iterations 1
DILUPBiCGStab:  Solving for k, Initial residual = 0.093391, Final residual = 0.000405841, No Iterations 1
ExecutionTime = 0.08 s  ClockTime = 0 s

Time = 94

DILUPBiCGStab:  Solving for h, Initial residual = 0.00365189, Final residual = 5.53405e-06, No Iterations 1
GAMG:  Solving for p_rgh, Initial residual = 0.000347227, Final residual = 1.47273e-07, No Iterations 1
time step continuity errors : sum local = 8.00089e-07, global = 2.92735e-17, cumulative = -1.33187e-15
rho max/min : 1.225 1.225
DILUPBiCGStab:  Solving for omega, Initial residual = 0.002366, Final residual = 5.04484e-06, No Iterations 1
DILUPBiCGStab:  Solving for k, Initial residual = 0.0780648, Final residual = 0.00033219, No Iterations 1
ExecutionTime = 0.09 s  ClockTime = 0 s

Time = 95

DILUPBiCGStab:  Solving for h, Initial residual = 0.00377702, Final residual = 5.81912e-06, No Iterations 1
GAMG:  Solving for p_rgh, Initial residual = 0.000218381, Final residual = 8.12367e-09, No Iterations 1
time step continuity errors : sum local = 4.11836e-08, global = -9.43256e-17, cumulative = -1.42619e-15
rho max/min : 1.225 1.225
DILUPBiCGStab:  Solving for omega, Initial residual = 0.00153473, Final residual = 6.33052e-06, No Iterations 1
DILUPBiCGStab:  Solving for k, Initial residual = 0.0709794, Final residual = 0.000269913, No Iterations 1
ExecutionTime = 0.09 s  ClockTime = 0 s

Time = 96

DILUPBiCGStab:  Solving for h, Initial residual = 0.00394753, Final residual = 5.95207e-06, No Iterations 1
GAMG:  Solving for p_rgh, Initial residual = 0.000186384, Final residual = 9.49461e-08, No Iterations 1
time step continuity errors : sum local = 4.42648e-07, global = 1.13841e-16, cumulative = -1.31235e-15
rho max/min : 1.225 1.225
DILUPBiCGStab:  Solving for omega, Initial residual = 0.0137579, Final residual = 1.63251e-05, No Iterations 1
DILUPBiCGStab:  Solving for k, Initial residual = 0.219893, Final residual = 0.000271153, No Iterations 1
ExecutionTime = 0.09 s  ClockTime = 0 s

Time = 97

DILUPBiCGStab:  Solving for h, Initial residual = 0.00384901, Final residual = 4.68347e-06, No Iterations 1
GAMG:  Solving for p_rgh, Initial residual = 0.000349491, Final residual = 4.59696e-08, No Iterations 1
time step continuity errors : sum local = 3.2267e-07, global = -1.51788e-16, cumulative = -1.46414e-15
rho max/min : 1.225 1.225
DILUPBiCGStab:  Solving for omega, Initial residual = 0.0203388, Final residual = 1.68676e-05, No Iterations 1
DILUPBiCGStab:  Solving for k, Initial residual = 0.0793407, Final residual = 0.000316971, No Iterations 1
ExecutionTime = 0.09 s  ClockTime = 0 s

Time = 98

DILUPBiCGStab:  Solving for h, Initial residual = 0.00374511, Final residual = 4.92235e-06, No Iterations 1
GAMG:  Solving for p_rgh, Initial residual = 0.000285627, Final residual = 9.8748e-09, No Iterations 1
time step continuity errors : sum local = 5.99024e-08, global = 3.08998e-17, cumulative = -1.43324e-15
rho max/min : 1.225 1.225
DILUPBiCGStab:  Solving for omega, Initial residual = 0.00216906, Final residual = 5.07856e-06, No Iterations 1
DILUPBiCGStab:  Solving for k, Initial residual = 0.0659219, Final residual = 0.000242577, No Iterations 1
ExecutionTime = 0.09 s  ClockTime = 0 s

Time = 99

DILUPBiCGStab:  Solving for h, Initial residual = 0.00378387, Final residual = 5.05126e-06, No Iterations 1
GAMG:  Solving for p_rgh, Initial residual = 0.000180995, Final residual = 3.70085e-08, No Iterations 1
time step continuity errors : sum local = 2.11484e-07, global = 1.07336e-16, cumulative = -1.3259e-15
rho max/min : 1.225 1.225
DILUPBiCGStab:  Solving for omega, Initial residual = 0.0112257, Final residual = 2.91797e-06, No Iterations 1
DILUPBiCGStab:  Solving for k, Initial residual = 0.214023, Final residual = 0.000221439, No Iterations 1
ExecutionTime = 0.09 s  ClockTime = 0 s

Time = 100

DILUPBiCGStab:  Solving for h, Initial residual = 0.00365854, Final residual = 5.75337e-06, No Iterations 1
GAMG:  Solving for p_rgh, Initial residual = 0.000601855, Final residual = 7.25798e-08, No Iterations 1
time step continuity errors : sum local = 3.87277e-07, global = -4.66207e-17, cumulative = -1.37252e-15
rho max/min : 1.225 1.225
DILUPBiCGStab:  Solving for omega, Initial residual = 0.0174768, Final residual = 3.433e-06, No Iterations 1
DILUPBiCGStab:  Solving for k, Initial residual = 0.0746999, Final residual = 0.000258355, No Iterations 1
ExecutionTime = 0.09 s  ClockTime = 0 s

Time = 101

DILUPBiCGStab:  Solving for h, Initial residual = 0.00355533, Final residual = 5.84627e-06, No Iterations 1
GAMG:  Solving for p_rgh, Initial residual = 0.000348693, Final residual = 1.53468e-07, No Iterations 1
time step continuity errors : sum local = 7.66338e-07, global = 3.79464e-18, cumulative = -1.36873e-15
rho max/min : 1.225 1.225
DILUPBiCGStab:  Solving for omega, Initial residual = 0.00224856, Final residual = 3.88419e-06, No Iterations 1
DILUPBiCGStab:  Solving for k, Initial residual = 0.0635814, Final residual = 0.00021893, No Iterations 1
ExecutionTime = 0.09 s  ClockTime = 0 s

Time = 102

DILUPBiCGStab:  Solving for h, Initial residual = 0.00367591, Final residual = 6.1385e-06, No Iterations 1
GAMG:  Solving for p_rgh, Initial residual = 0.000218544, Final residual = 1.90085e-08, No Iterations 1
time step continuity errors : sum local = 8.83404e-08, global = -1.8052e-16, cumulative = -1.54925e-15
rho max/min : 1.225 1.225
DILUPBiCGStab:  Solving for omega, Initial residual = 0.00115341, Final residual = 5.06969e-06, No Iterations 1
DILUPBiCGStab:  Solving for k, Initial residual = 0.0599337, Final residual = 0.000183583, No Iterations 1
ExecutionTime = 0.09 s  ClockTime = 0 s

Time = 103

DILUPBiCGStab:  Solving for h, Initial residual = 0.00383026, Final residual = 6.28379e-06, No Iterations 1
GAMG:  Solving for p_rgh, Initial residual = 0.000174952, Final residual = 8.30944e-08, No Iterations 1
time step continuity errors : sum local = 3.59699e-07, global = -2.65087e-16, cumulative = -1.81434e-15
rho max/min : 1.225 1.225
DILUPBiCGStab:  Solving for omega, Initial residual = 0.0113306, Final residual = 1.34734e-05, No Iterations 1
DILUPBiCGStab:  Solving for k, Initial residual = 0.196811, Final residual = 0.000185142, No Iterations 1
ExecutionTime = 0.09 s  ClockTime = 0 s

Time = 104

DILUPBiCGStab:  Solving for h, Initial residual = 0.00379885, Final residual = 5.15814e-06, No Iterations 1
GAMG:  Solving for p_rgh, Initial residual = 0.000361456, Final residual = 5.43494e-08, No Iterations 1
time step continuity errors : sum local = 3.40403e-07, global = -4.2826e-17, cumulative = -1.85716e-15
rho max/min : 1.225 1.225
DILUPBiCGStab:  Solving for omega, Initial residual = 0.0165481, Final residual = 1.43398e-05, No Iterations 1
DILUPBiCGStab:  Solving for k, Initial residual = 0.0661027, Final residual = 0.00020934, No Iterations 1
ExecutionTime = 0.09 s  ClockTime = 0 s

Time = 105

DILUPBiCGStab:  Solving for h, Initial residual = 0.00362696, Final residual = 5.28912e-06, No Iterations 1
GAMG:  Solving for p_rgh, Initial residual = 0.000291792, Final residual = 7.16385e-09, No Iterations 1
time step continuity errors : sum local = 3.95251e-08, global = -7.80626e-17, cumulative = -1.93522e-15
rho max/min : 1.225 1.225
DILUPBiCGStab:  Solving for omega, Initial residual = 0.00185026, Final residual = 3.56434e-06, No Iterations 1
DILUPBiCGStab:  Solving for k, Initial residual = 0.0558759, Final residual = 0.000156742, No Iterations 1
ExecutionTime = 0.09 s  ClockTime = 0 s

Time = 106

DILUPBiCGStab:  Solving for h, Initial residual = 0.00368094, Final residual = 5.34439e-06, No Iterations 1
GAMG:  Solving for p_rgh, Initial residual = 0.000184702, Final residual = 4.48517e-08, No Iterations 1
time step continuity errors : sum local = 2.35989e-07, global = 2.08709e-16, cumulative = -1.72652e-15
rho max/min : 1.225 1.225
DILUPBiCGStab:  Solving for omega, Initial residual = 0.00139371, Final residual = 2.54569e-06, No Iterations 1
DILUPBiCGStab:  Solving for k, Initial residual = 0.0532577, Final residual = 0.000130042, No Iterations 1
ExecutionTime = 0.1 s  ClockTime = 0 s

Time = 107

DILUPBiCGStab:  Solving for h, Initial residual = 0.00374693, Final residual = 5.47754e-06, No Iterations 1
GAMG:  Solving for p_rgh, Initial residual = 0.000117227, Final residual = 2.54568e-08, No Iterations 1
time step continuity errors : sum local = 1.26219e-07, global = 1.1872e-16, cumulative = -1.6078e-15
rho max/min : 1.225 1.225
DILUPBiCGStab:  Solving for omega, Initial residual = 0.0134607, Final residual = 2.14851e-06, No Iterations 1
DILUPBiCGStab:  Solving for k, Initial residual = 0.203123, Final residual = 0.000121496, No Iterations 1
ExecutionTime = 0.1 s  ClockTime = 0 s

Time = 108

DILUPBiCGStab:  Solving for h, Initial residual = 0.00383156, Final residual = 6.25297e-06, No Iterations 1
GAMG:  Solving for p_rgh, Initial residual = 0.000743728, Final residual = 1.15405e-07, No Iterations 1
time step continuity errors : sum local = 5.37918e-07, global = -1.40946e-16, cumulative = -1.74874e-15
rho max/min : 1.225 1.225
DILUPBiCGStab:  Solving for omega, Initial residual = 0.0214591, Final residual = 2.76951e-06, No Iterations 1
DILUPBiCGStab:  Solving for k, Initial residual = 0.0623037, Final residual = 0.000146132, No Iterations 1
ExecutionTime = 0.1 s  ClockTime = 0 s

Time = 109

DILUPBiCGStab:  Solving for h, Initial residual = 0.00358868, Final residual = 6.31451e-06, No Iterations 1
GAMG:  Solving for p_rgh, Initial residual = 0.000417555, Final residual = 1.81497e-07, No Iterations 1
time step continuity errors : sum local = 8.0284e-07, global = 5.25838e-17, cumulative = -1.69616e-15
rho max/min : 1.225 1.225
DILUPBiCGStab:  Solving for omega, Initial residual = 0.00226174, Final residual = 3.27379e-06, No Iterations 1
DILUPBiCGStab:  Solving for k, Initial residual = 0.0537348, Final residual = 0.000127954, No Iterations 1
ExecutionTime = 0.1 s  ClockTime = 0 s

Time = 110

DILUPBiCGStab:  Solving for h, Initial residual = 0.00365744, Final residual = 6.54129e-06, No Iterations 1
GAMG:  Solving for p_rgh, Initial residual = 0.000243146, Final residual = 1.29182e-08, No Iterations 1
time step continuity errors : sum local = 5.33276e-08, global = 3.28513e-16, cumulative = -1.36764e-15
rho max/min : 1.225 1.225
DILUPBiCGStab:  Solving for omega, Initial residual = 0.00129454, Final residual = 4.45824e-06, No Iterations 1
DILUPBiCGStab:  Solving for k, Initial residual = 0.0514154, Final residual = 0.000109844, No Iterations 1
ExecutionTime = 0.1 s  ClockTime = 0 s

Time = 111

DILUPBiCGStab:  Solving for h, Initial residual = 0.0037519, Final residual = 6.63082e-06, No Iterations 1
GAMG:  Solving for p_rgh, Initial residual = 0.000193477, Final residual = 1.173e-07, No Iterations 1
time step continuity errors : sum local = 4.54816e-07, global = -3.90313e-17, cumulative = -1.40668e-15
rho max/min : 1.225 1.225
DILUPBiCGStab:  Solving for omega, Initial residual = 0.0132518, Final residual = 1.43568e-05, No Iterations 1
DILUPBiCGStab:  Solving for k, Initial residual = 0.19583, Final residual = 0.000118121, No Iterations 1
ExecutionTime = 0.1 s  ClockTime = 0 s

Time = 112

DILUPBiCGStab:  Solving for h, Initial residual = 0.00375703, Final residual = 5.5009e-06, No Iterations 1
GAMG:  Solving for p_rgh, Initial residual = 0.000396667, Final residual = 5.68043e-08, No Iterations 1
time step continuity errors : sum local = 3.32214e-07, global = -8.78204e-17, cumulative = -1.4945e-15
rho max/min : 1.225 1.225
DILUPBiCGStab:  Solving for omega, Initial residual = 0.019851, Final residual = 1.51486e-05, No Iterations 1
DILUPBiCGStab:  Solving for k, Initial residual = 0.0581805, Final residual = 0.000136258, No Iterations 1
ExecutionTime = 0.1 s  ClockTime = 0 s

Time = 113

DILUPBiCGStab:  Solving for h, Initial residual = 0.00352066, Final residual = 5.61274e-06, No Iterations 1
GAMG:  Solving for p_rgh, Initial residual = 0.000312134, Final residual = 1.63695e-08, No Iterations 1
time step continuity errors : sum local = 8.48945e-08, global = 2.05998e-17, cumulative = -1.4739e-15
rho max/min : 1.225 1.225
DILUPBiCGStab:  Solving for omega, Initial residual = 0.00179731, Final residual = 3.40126e-06, No Iterations 1
DILUPBiCGStab:  Solving for k, Initial residual = 0.0488981, Final residual = 9.29608e-05, No Iterations 1
ExecutionTime = 0.1 s  ClockTime = 0 s

Time = 114

DILUPBiCGStab:  Solving for h, Initial residual = 0.00355963, Final residual = 5.64905e-06, No Iterations 1
GAMG:  Solving for p_rgh, Initial residual = 0.000195199, Final residual = 5.40754e-08, No Iterations 1
time step continuity errors : sum local = 2.64631e-07, global = 1.40946e-16, cumulative = -1.33295e-15
rho max/min : 1.225 1.225
DILUPBiCGStab:  Solving for omega, Initial residual = 0.0012963, Final residual = 2.0617e-06, No Iterations 1
DILUPBiCGStab:  Solving for k, Initial residual = 0.0471699, Final residual = 7.70233e-05, No Iterations 1
ExecutionTime = 0.1 s  ClockTime = 0 s

Time = 115

DILUPBiCGStab:  Solving for h, Initial residual = 0.00359556, Final residual = 5.67138e-06, No Iterations 1
GAMG:  Solving for p_rgh, Initial residual = 0.000120776, Final residual = 3.40644e-08, No Iterations 1
time step continuity errors : sum local = 1.57681e-07, global = 1.68593e-16, cumulative = -1.16436e-15
rho max/min : 1.225 1.225
DILUPBiCGStab:  Solving for omega, Initial residual = 0.0120828, Final residual = 1.59465e-06, No Iterations 1
DILUPBiCGStab:  Solving for k, Initial residual = 0.190696, Final residual = 7.28409e-05, No Iterations 1
ExecutionTime = 0.1 s  ClockTime = 0 s

Time = 116

DILUPBiCGStab:  Solving for h, Initial residual = 0.00375209, Final residual = 6.51044e-06, No Iterations 1
GAMG:  Solving for p_rgh, Initial residual = 0.000763449, Final residual = 1.4488e-07, No Iterations 1
time step continuity errors : sum local = 6.32791e-07, global = 7.20994e-17, cumulative = -1.09226e-15
rho max/min : 1.225 1.225
DILUPBiCGStab:  Solving for omega, Initial residual = 0.0192426, Final residual = 2.17171e-06, No Iterations 1
DILUPBiCGStab:  Solving for k, Initial residual = 0.0554614, Final residual = 8.89567e-05, No Iterations 1
ExecutionTime = 0.1 s  ClockTime = 0 s

Time = 117

DILUPBiCGStab:  Solving for h, Initial residual = 0.00347039, Final residual = 6.56659e-06, No Iterations 1
GAMG:  Solving for p_rgh, Initial residual = 0.000438307, Final residual = 1.68731e-07, No Iterations 1
time step continuity errors : sum local = 7.02629e-07, global = 3.51282e-16, cumulative = -7.40976e-16
rho max/min : 1.225 1.225
DILUPBiCGStab:  Solving for omega, Initial residual = 0.00223558, Final residual = 2.62683e-06, No Iterations 1
DILUPBiCGStab:  Solving for k, Initial residual = 0.0476007, Final residual = 8.06583e-05, No Iterations 1
ExecutionTime = 0.1 s  ClockTime = 0 s

Time = 118

DILUPBiCGStab:  Solving for h, Initial residual = 0.00350999, Final residual = 6.70288e-06, No Iterations 1
GAMG:  Solving for p_rgh, Initial residual = 0.000282938, Final residual = 4.6091e-08, No Iterations 1
time step continuity errors : sum local = 1.79282e-07, global = -1.71304e-16, cumulative = -9.1228e-16
rho max/min : 1.225 1.225
DILUPBiCGStab:  Solving for omega, Initial residual = 0.00109329, Final residual = 3.69171e-06, No Iterations 1
DILUPBiCGStab:  Solving for k, Initial residual = 0.0460336, Final residual = 7.13777e-05, No Iterations 1
ExecutionTime = 0.1 s  ClockTime = 0 s

Time = 119

DILUPBiCGStab:  Solving for h, Initial residual = 0.00357899, Final residual = 6.78401e-06, No Iterations 1
GAMG:  Solving for p_rgh, Initial residual = 0.000181913, Final residual = 1.0408e-07, No Iterations 1
time step continuity errors : sum local = 3.85178e-07, global = -8.29415e-17, cumulative = -9.95221e-16
rho max/min : 1.225 1.225
DILUPBiCGStab:  Solving for omega, Initial residual = 0.0115777, Final residual = 1.24293e-05, No Iterations 1
DILUPBiCGStab:  Solving for k, Initial residual = 0.18629, Final residual = 7.85615e-05, No Iterations 1
ExecutionTime = 0.11 s  ClockTime = 0 s

Time = 120

DILUPBiCGStab:  Solving for h, Initial residual = 0.00364366, Final residual = 5.77948e-06, No Iterations 1
GAMG:  Solving for p_rgh, Initial residual = 0.000402287, Final residual = 6.56314e-08, No Iterations 1
time step continuity errors : sum local = 3.57035e-07, global = -1.2902e-16, cumulative = -1.12424e-15
rho max/min : 1.225 1.225
DILUPBiCGStab:  Solving for omega, Initial residual = 0.0172923, Final residual = 1.37679e-05, No Iterations 1
DILUPBiCGStab:  Solving for k, Initial residual = 0.0525871, Final residual = 8.65232e-05, No Iterations 1
ExecutionTime = 0.11 s  ClockTime = 0 s

Time = 121

DILUPBiCGStab:  Solving for h, Initial residual = 0.00338811, Final residual = 5.87002e-06, No Iterations 1
GAMG:  Solving for p_rgh, Initial residual = 0.000311011, Final residual = 1.23283e-08, No Iterations 1
time step continuity errors : sum local = 5.95456e-08, global = 1.18178e-16, cumulative = -1.00606e-15
rho max/min : 1.225 1.225
DILUPBiCGStab:  Solving for omega, Initial residual = 0.00165835, Final residual = 2.6852e-06, No Iterations 1
DILUPBiCGStab:  Solving for k, Initial residual = 0.0437715, Final residual = 5.25175e-05, No Iterations 1
ExecutionTime = 0.11 s  ClockTime = 0 s

Time = 122

DILUPBiCGStab:  Solving for h, Initial residual = 0.00339712, Final residual = 5.85208e-06, No Iterations 1
GAMG:  Solving for p_rgh, Initial residual = 0.00018572, Final residual = 5.59277e-08, No Iterations 1
time step continuity errors : sum local = 2.60151e-07, global = -9.21572e-18, cumulative = -1.01528e-15
rho max/min : 1.225 1.225
DILUPBiCGStab:  Solving for omega, Initial residual = 0.00100298, Final residual = 1.73939e-06, No Iterations 1
DILUPBiCGStab:  Solving for k, Initial residual = 0.0428184, Final residual = 4.39784e-05, No Iterations 1
ExecutionTime = 0.11 s  ClockTime = 0 s

Time = 123

DILUPBiCGStab:  Solving for h, Initial residual = 0.00342037, Final residual = 5.77561e-06, No Iterations 1
GAMG:  Solving for p_rgh, Initial residual = 0.000117508, Final residual = 4.65488e-08, No Iterations 1
time step continuity errors : sum local = 2.06265e-07, global = 1.35525e-17, cumulative = -1.00173e-15
rho max/min : 1.225 1.225
DILUPBiCGStab:  Solving for omega, Initial residual = 0.00894831, Final residual = 1.26868e-06, No Iterations 1
DILUPBiCGStab:  Solving for k, Initial residual = 0.176174, Final residual = 4.40342e-05, No Iterations 1
ExecutionTime = 0.11 s  ClockTime = 0 s

Time = 124

DILUPBiCGStab:  Solving for h, Initial residual = 0.00358679, Final residual = 6.62918e-06, No Iterations 1
GAMG:  Solving for p_rgh, Initial residual = 0.000715425, Final residual = 1.69465e-07, No Iterations 1
time step continuity errors : sum local = 7.12688e-07, global = -1.56125e-16, cumulative = -1.15785e-15
rho max/min : 1.225 1.225
DILUPBiCGStab:  Solving for omega, Initial residual = 0.0141778, Final residual = 1.74268e-06, No Iterations 1
DILUPBiCGStab:  Solving for k, Initial residual = 0.0501265, Final residual = 5.50514e-05, No Iterations 1
ExecutionTime = 0.11 s  ClockTime = 0 s

Time = 125

DILUPBiCGStab:  Solving for h, Initial residual = 0.00333459, Final residual = 6.63604e-06, No Iterations 1
GAMG:  Solving for p_rgh, Initial residual = 0.000394812, Final residual = 1.61239e-07, No Iterations 1
time step continuity errors : sum local = 6.51403e-07, global = 1.13299e-16, cumulative = -1.04455e-15
rho max/min : 1.225 1.225
DILUPBiCGStab:  Solving for omega, Initial residual = 0.00201096, Final residual = 2.08396e-06, No Iterations 1
DILUPBiCGStab:  Solving for k, Initial residual = 0.0429644, Final residual = 5.22395e-05, No Iterations 1
ExecutionTime = 0.11 s  ClockTime = 0 s

Time = 126

DILUPBiCGStab:  Solving for h, Initial residual = 0.00333107, Final residual = 6.71787e-06, No Iterations 1
GAMG:  Solving for p_rgh, Initial residual = 0.000261689, Final residual = 6.05563e-08, No Iterations 1
time step continuity errors : sum local = 2.30056e-07, global = -1.33899e-16, cumulative = -1.17845e-15
rho max/min : 1.225 1.225
DILUPBiCGStab:  Solving for omega, Initial residual = 0.000789714, Final residual = 3.02794e-06, No Iterations 1
DILUPBiCGStab:  Solving for k, Initial residual = 0.0420873, Final residual = 4.87031e-05, No Iterations 1
ExecutionTime = 0.11 s  ClockTime = 0 s

Time = 127

DILUPBiCGStab:  Solving for h, Initial residual = 0.00338292, Final residual = 6.80369e-06, No Iterations 1
GAMG:  Solving for p_rgh, Initial residual = 0.000163033, Final residual = 8.75388e-08, No Iterations 1
time step continuity errors : sum local = 3.18302e-07, global = -4.33681e-18, cumulative = -1.18279e-15
rho max/min : 1.225 1.225
DILUPBiCGStab:  Solving for omega, Initial residual = 0.00133772, Final residual = 3.49665e-06, No Iterations 1
DILUPBiCGStab:  Solving for k, Initial residual = 0.0416968, Final residual = 4.41537e-05, No Iterations 1
ExecutionTime = 0.11 s  ClockTime = 0 s

Time = 128

DILUPBiCGStab:  Solving for h, Initial residual = 0.00354121, Final residual = 6.80713e-06, No Iterations 1
[...]
rho max/min : 1.225 1.225
DILUPBiCGStab:  Solving for omega, Initial residual = 0.00933164, Final residual = 8.42393e-06, No Iterations 1
DILUPBiCGStab:  Solving for k, Initial residual = 0.178258, Final residual = 3.6873e-05, No Iterations 1
ExecutionTime = 1.55 s  ClockTime = 2 s

Time = 1969

DILUPBiCGStab:  Solving for h, Initial residual = 0.000766183, Final residual = 7.64571e-07, No Iterations 1
GAMG:  Solving for p_rgh, Initial residual = 0.000417163, Final residual = 9.98995e-09, No Iterations 1
time step continuity errors : sum local = 4.92209e-08, global = 7.481e-17, cumulative = -7.87719e-15
rho max/min : 1.225 1.225
DILUPBiCGStab:  Solving for omega, Initial residual = 0.01547, Final residual = 1.21826e-05, No Iterations 1
DILUPBiCGStab:  Solving for k, Initial residual = 0.0236862, Final residual = 4.09105e-05, No Iterations 1
ExecutionTime = 1.55 s  ClockTime = 2 s

Time = 1970

DILUPBiCGStab:  Solving for h, Initial residual = 0.000534211, Final residual = 6.41064e-07, No Iterations 1
GAMG:  Solving for p_rgh, Initial residual = 0.00031521, Final residual = 4.77576e-08, No Iterations 1
time step continuity errors : sum local = 2.14843e-07, global = 1.96783e-16, cumulative = -7.68041e-15
rho max/min : 1.225 1.225
DILUPBiCGStab:  Solving for omega, Initial residual = 0.00138561, Final residual = 2.13422e-06, No Iterations 1
DILUPBiCGStab:  Solving for k, Initial residual = 0.0192259, Final residual = 1.1319e-05, No Iterations 1
ExecutionTime = 1.56 s  ClockTime = 2 s

Time = 1971

DILUPBiCGStab:  Solving for h, Initial residual = 0.000455646, Final residual = 6.05752e-07, No Iterations 1
GAMG:  Solving for p_rgh, Initial residual = 0.000177655, Final residual = 5.34781e-08, No Iterations 1
time step continuity errors : sum local = 2.39673e-07, global = -5.96311e-17, cumulative = -7.74004e-15
rho max/min : 1.225 1.225
DILUPBiCGStab:  Solving for omega, Initial residual = 0.000488165, Final residual = 1.05243e-06, No Iterations 1
DILUPBiCGStab:  Solving for k, Initial residual = 0.0182875, Final residual = 6.58482e-06, No Iterations 1
ExecutionTime = 1.56 s  ClockTime = 2 s

Time = 1972

DILUPBiCGStab:  Solving for h, Initial residual = 0.000387703, Final residual = 5.89505e-07, No Iterations 1
GAMG:  Solving for p_rgh, Initial residual = 9.25473e-05, Final residual = 4.58826e-08, No Iterations 1
time step continuity errors : sum local = 2.01898e-07, global = 9.70361e-17, cumulative = -7.64301e-15
rho max/min : 1.225 1.225
DILUPBiCGStab:  Solving for omega, Initial residual = 0.000526085, Final residual = 7.75011e-07, No Iterations 1
DILUPBiCGStab:  Solving for k, Initial residual = 0.0179883, Final residual = 5.26438e-06, No Iterations 1
ExecutionTime = 1.56 s  ClockTime = 2 s

Time = 1973

DILUPBiCGStab:  Solving for h, Initial residual = 0.000363614, Final residual = 5.77421e-07, No Iterations 1
GAMG:  Solving for p_rgh, Initial residual = 6.82722e-05, Final residual = 1.64188e-08, No Iterations 1
time step continuity errors : sum local = 7.08755e-08, global = -2.35814e-16, cumulative = -7.87882e-15
rho max/min : 1.225 1.225
DILUPBiCGStab:  Solving for omega, Initial residual = 0.000499691, Final residual = 5.98147e-07, No Iterations 1
DILUPBiCGStab:  Solving for k, Initial residual = 0.0177034, Final residual = 4.42201e-06, No Iterations 1
ExecutionTime = 1.56 s  ClockTime = 2 s

Time = 1974

DILUPBiCGStab:  Solving for h, Initial residual = 0.00035077, Final residual = 5.58137e-07, No Iterations 1
GAMG:  Solving for p_rgh, Initial residual = 5.53786e-05, Final residual = 1.16122e-08, No Iterations 1
time step continuity errors : sum local = 4.90551e-08, global = 2.87314e-17, cumulative = -7.85009e-15
rho max/min : 1.225 1.225
DILUPBiCGStab:  Solving for omega, Initial residual = 0.000517091, Final residual = 4.52126e-07, No Iterations 1
DILUPBiCGStab:  Solving for k, Initial residual = 0.0173288, Final residual = 4.05802e-06, No Iterations 1
ExecutionTime = 1.56 s  ClockTime = 2 s

Time = 1975

DILUPBiCGStab:  Solving for h, Initial residual = 0.000354928, Final residual = 5.41037e-07, No Iterations 1
GAMG:  Solving for p_rgh, Initial residual = 4.17598e-05, Final residual = 4.76168e-10, No Iterations 1
time step continuity errors : sum local = 1.89048e-09, global = -2.19551e-16, cumulative = -8.06964e-15
rho max/min : 1.225 1.225
DILUPBiCGStab:  Solving for omega, Initial residual = 0.000560018, Final residual = 3.51178e-07, No Iterations 1
DILUPBiCGStab:  Solving for k, Initial residual = 0.0168977, Final residual = 4.1358e-06, No Iterations 1
ExecutionTime = 1.56 s  ClockTime = 2 s

Time = 1976

DILUPBiCGStab:  Solving for h, Initial residual = 0.0003635, Final residual = 5.4273e-07, No Iterations 1
GAMG:  Solving for p_rgh, Initial residual = 3.24627e-05, Final residual = 7.91722e-09, No Iterations 1
time step continuity errors : sum local = 3.20943e-08, global = -1.6263e-18, cumulative = -8.07127e-15
rho max/min : 1.225 1.225
DILUPBiCGStab:  Solving for omega, Initial residual = 0.00061095, Final residual = 3.47586e-07, No Iterations 1
DILUPBiCGStab:  Solving for k, Initial residual = 0.0165126, Final residual = 4.03791e-06, No Iterations 1
ExecutionTime = 1.56 s  ClockTime = 2 s

Time = 1977

DILUPBiCGStab:  Solving for h, Initial residual = 0.000364572, Final residual = 5.41489e-07, No Iterations 1
GAMG:  Solving for p_rgh, Initial residual = 2.88703e-05, Final residual = 1.13212e-09, No Iterations 1
time step continuity errors : sum local = 4.47629e-09, global = -3.5345e-16, cumulative = -8.42472e-15
rho max/min : 1.225 1.225
DILUPBiCGStab:  Solving for omega, Initial residual = 0.000662643, Final residual = 3.45068e-07, No Iterations 1
DILUPBiCGStab:  Solving for k, Initial residual = 0.016145, Final residual = 4.42947e-06, No Iterations 1
ExecutionTime = 1.56 s  ClockTime = 2 s

Time = 1978

DILUPBiCGStab:  Solving for h, Initial residual = 0.000367752, Final residual = 5.40189e-07, No Iterations 1
GAMG:  Solving for p_rgh, Initial residual = 3.11995e-05, Final residual = 3.59736e-09, No Iterations 1
time step continuity errors : sum local = 1.40725e-08, global = 3.03577e-16, cumulative = -8.12114e-15
rho max/min : 1.225 1.225
DILUPBiCGStab:  Solving for omega, Initial residual = 0.0100406, Final residual = 3.10957e-07, No Iterations 1
DILUPBiCGStab:  Solving for k, Initial residual = 0.186933, Final residual = 4.45729e-06, No Iterations 1
ExecutionTime = 1.56 s  ClockTime = 2 s

Time = 1979

DILUPBiCGStab:  Solving for h, Initial residual = 0.000786692, Final residual = 5.17872e-07, No Iterations 1
GAMG:  Solving for p_rgh, Initial residual = 0.0007874, Final residual = 1.93202e-07, No Iterations 1
time step continuity errors : sum local = 7.42912e-07, global = 4.22839e-17, cumulative = -8.07886e-15
rho max/min : 1.225 1.225
DILUPBiCGStab:  Solving for omega, Initial residual = 0.0177119, Final residual = 4.24038e-07, No Iterations 1
DILUPBiCGStab:  Solving for k, Initial residual = 0.0232771, Final residual = 7.80507e-06, No Iterations 1
ExecutionTime = 1.56 s  ClockTime = 2 s

Time = 1980

DILUPBiCGStab:  Solving for h, Initial residual = 0.000525931, Final residual = 5.31384e-07, No Iterations 1
GAMG:  Solving for p_rgh, Initial residual = 0.000411602, Final residual = 1.8943e-07, No Iterations 1
time step continuity errors : sum local = 7.19809e-07, global = 2.1413e-16, cumulative = -7.86473e-15
rho max/min : 1.225 1.225
DILUPBiCGStab:  Solving for omega, Initial residual = 0.00166263, Final residual = 4.43217e-07, No Iterations 1
DILUPBiCGStab:  Solving for k, Initial residual = 0.0203111, Final residual = 8.45716e-06, No Iterations 1
ExecutionTime = 1.56 s  ClockTime = 2 s

Time = 1981

DILUPBiCGStab:  Solving for h, Initial residual = 0.000446419, Final residual = 5.48132e-07, No Iterations 1
GAMG:  Solving for p_rgh, Initial residual = 0.000226557, Final residual = 5.22661e-08, No Iterations 1
time step continuity errors : sum local = 1.94602e-07, global = -3.11166e-16, cumulative = -8.17589e-15
rho max/min : 1.225 1.225
DILUPBiCGStab:  Solving for omega, Initial residual = 0.000328245, Final residual = 6.03951e-07, No Iterations 1
DILUPBiCGStab:  Solving for k, Initial residual = 0.0193605, Final residual = 9.24733e-06, No Iterations 1
ExecutionTime = 1.56 s  ClockTime = 2 s

Time = 1982

DILUPBiCGStab:  Solving for h, Initial residual = 0.000378233, Final residual = 5.77842e-07, No Iterations 1
GAMG:  Solving for p_rgh, Initial residual = 0.00013041, Final residual = 8.83388e-08, No Iterations 1
time step continuity errors : sum local = 3.23894e-07, global = 3.68629e-17, cumulative = -8.13903e-15
rho max/min : 1.225 1.225
DILUPBiCGStab:  Solving for omega, Initial residual = 0.000495197, Final residual = 5.95005e-07, No Iterations 1
DILUPBiCGStab:  Solving for k, Initial residual = 0.0193436, Final residual = 9.83235e-06, No Iterations 1
ExecutionTime = 1.56 s  ClockTime = 2 s

Time = 1983

DILUPBiCGStab:  Solving for h, Initial residual = 0.000355435, Final residual = 6.0935e-07, No Iterations 1
GAMG:  Solving for p_rgh, Initial residual = 0.000104885, Final residual = 8.07279e-08, No Iterations 1
time step continuity errors : sum local = 2.88747e-07, global = -1.20889e-16, cumulative = -8.25992e-15
rho max/min : 1.225 1.225
DILUPBiCGStab:  Solving for omega, Initial residual = 0.000430894, Final residual = 7.55653e-07, No Iterations 1
DILUPBiCGStab:  Solving for k, Initial residual = 0.0190603, Final residual = 1.01551e-05, No Iterations 1
ExecutionTime = 1.57 s  ClockTime = 2 s

Time = 1984

DILUPBiCGStab:  Solving for h, Initial residual = 0.000356499, Final residual = 6.29145e-07, No Iterations 1
GAMG:  Solving for p_rgh, Initial residual = 9.177e-05, Final residual = 6.10515e-08, No Iterations 1
time step continuity errors : sum local = 2.14086e-07, global = 2.67256e-16, cumulative = -7.99266e-15
rho max/min : 1.225 1.225
DILUPBiCGStab:  Solving for omega, Initial residual = 0.000454926, Final residual = 8.90903e-07, No Iterations 1
DILUPBiCGStab:  Solving for k, Initial residual = 0.0187402, Final residual = 1.01332e-05, No Iterations 1
ExecutionTime = 1.57 s  ClockTime = 2 s

Time = 1985

DILUPBiCGStab:  Solving for h, Initial residual = 0.000369008, Final residual = 6.43562e-07, No Iterations 1
GAMG:  Solving for p_rgh, Initial residual = 6.32939e-05, Final residual = 1.48368e-08, No Iterations 1
time step continuity errors : sum local = 5.09174e-08, global = 1.00831e-16, cumulative = -7.89183e-15
rho max/min : 1.225 1.225
DILUPBiCGStab:  Solving for omega, Initial residual = 0.000499955, Final residual = 9.81727e-07, No Iterations 1
DILUPBiCGStab:  Solving for k, Initial residual = 0.0184414, Final residual = 9.804e-06, No Iterations 1
ExecutionTime = 1.57 s  ClockTime = 2 s

Time = 1986

DILUPBiCGStab:  Solving for h, Initial residual = 0.000377444, Final residual = 6.51966e-07, No Iterations 1
GAMG:  Solving for p_rgh, Initial residual = 5.03703e-05, Final residual = 1.85989e-08, No Iterations 1
time step continuity errors : sum local = 6.28602e-08, global = 1.1872e-16, cumulative = -7.77311e-15
rho max/min : 1.225 1.225
DILUPBiCGStab:  Solving for omega, Initial residual = 0.000563601, Final residual = 1.02437e-06, No Iterations 1
DILUPBiCGStab:  Solving for k, Initial residual = 0.0180623, Final residual = 9.0321e-06, No Iterations 1
ExecutionTime = 1.57 s  ClockTime = 2 s

Time = 1987

DILUPBiCGStab:  Solving for h, Initial residual = 0.000387676, Final residual = 6.581e-07, No Iterations 1
GAMG:  Solving for p_rgh, Initial residual = 4.42489e-05, Final residual = 6.81898e-10, No Iterations 1
time step continuity errors : sum local = 2.11792e-09, global = 2.81893e-17, cumulative = -7.74492e-15
rho max/min : 1.225 1.225
DILUPBiCGStab:  Solving for omega, Initial residual = 0.000634822, Final residual = 1.05604e-06, No Iterations 1
DILUPBiCGStab:  Solving for k, Initial residual = 0.0176462, Final residual = 7.95967e-06, No Iterations 1
ExecutionTime = 1.57 s  ClockTime = 2 s

Time = 1988

DILUPBiCGStab:  Solving for h, Initial residual = 0.000397691, Final residual = 6.58541e-07, No Iterations 1
GAMG:  Solving for p_rgh, Initial residual = 4.2648e-05, Final residual = 1.77085e-08, No Iterations 1
time step continuity errors : sum local = 5.83743e-08, global = -1.88651e-16, cumulative = -7.93357e-15
rho max/min : 1.225 1.225
DILUPBiCGStab:  Solving for omega, Initial residual = 0.00934111, Final residual = 8.42885e-06, No Iterations 1
DILUPBiCGStab:  Solving for k, Initial residual = 0.180966, Final residual = 3.74098e-05, No Iterations 1
ExecutionTime = 1.57 s  ClockTime = 2 s

Time = 1989

DILUPBiCGStab:  Solving for h, Initial residual = 0.000752199, Final residual = 7.51555e-07, No Iterations 1
GAMG:  Solving for p_rgh, Initial residual = 0.000419514, Final residual = 2.34328e-09, No Iterations 1
time step continuity errors : sum local = 1.12751e-08, global = 8.51099e-17, cumulative = -7.84846e-15
rho max/min : 1.225 1.225
DILUPBiCGStab:  Solving for omega, Initial residual = 0.0154873, Final residual = 1.21911e-05, No Iterations 1
DILUPBiCGStab:  Solving for k, Initial residual = 0.0238462, Final residual = 4.17527e-05, No Iterations 1
ExecutionTime = 1.57 s  ClockTime = 2 s

Time = 1990

DILUPBiCGStab:  Solving for h, Initial residual = 0.000521319, Final residual = 6.26497e-07, No Iterations 1
GAMG:  Solving for p_rgh, Initial residual = 0.000309489, Final residual = 3.69612e-08, No Iterations 1
time step continuity errors : sum local = 1.66445e-07, global = -1.70762e-16, cumulative = -8.01922e-15
rho max/min : 1.225 1.225
DILUPBiCGStab:  Solving for omega, Initial residual = 0.00136753, Final residual = 2.13951e-06, No Iterations 1
DILUPBiCGStab:  Solving for k, Initial residual = 0.0192896, Final residual = 1.15337e-05, No Iterations 1
ExecutionTime = 1.57 s  ClockTime = 2 s

Time = 1991

DILUPBiCGStab:  Solving for h, Initial residual = 0.000443491, Final residual = 5.92337e-07, No Iterations 1
GAMG:  Solving for p_rgh, Initial residual = 0.000174347, Final residual = 6.10775e-08, No Iterations 1
time step continuity errors : sum local = 2.73286e-07, global = 2.11419e-17, cumulative = -7.99808e-15
rho max/min : 1.225 1.225
DILUPBiCGStab:  Solving for omega, Initial residual = 0.000460409, Final residual = 1.06214e-06, No Iterations 1
DILUPBiCGStab:  Solving for k, Initial residual = 0.0183592, Final residual = 6.695e-06, No Iterations 1
ExecutionTime = 1.57 s  ClockTime = 2 s

Time = 1992

DILUPBiCGStab:  Solving for h, Initial residual = 0.000377294, Final residual = 5.73365e-07, No Iterations 1
GAMG:  Solving for p_rgh, Initial residual = 9.4923e-05, Final residual = 3.76644e-08, No Iterations 1
time step continuity errors : sum local = 1.65808e-07, global = 3.48029e-16, cumulative = -7.65005e-15
rho max/min : 1.225 1.225
DILUPBiCGStab:  Solving for omega, Initial residual = 0.000476259, Final residual = 7.668e-07, No Iterations 1
DILUPBiCGStab:  Solving for k, Initial residual = 0.0181118, Final residual = 5.38798e-06, No Iterations 1
ExecutionTime = 1.57 s  ClockTime = 2 s

Time = 1993

DILUPBiCGStab:  Solving for h, Initial residual = 0.000354372, Final residual = 5.61678e-07, No Iterations 1
GAMG:  Solving for p_rgh, Initial residual = 6.16131e-05, Final residual = 2.29349e-08, No Iterations 1
time step continuity errors : sum local = 9.88384e-08, global = 4.60786e-17, cumulative = -7.60398e-15
rho max/min : 1.225 1.225
DILUPBiCGStab:  Solving for omega, Initial residual = 0.000435671, Final residual = 6.41059e-07, No Iterations 1
DILUPBiCGStab:  Solving for k, Initial residual = 0.0179031, Final residual = 4.53202e-06, No Iterations 1
ExecutionTime = 1.57 s  ClockTime = 2 s

Time = 1994

DILUPBiCGStab:  Solving for h, Initial residual = 0.000343912, Final residual = 5.41083e-07, No Iterations 1
GAMG:  Solving for p_rgh, Initial residual = 5.48561e-05, Final residual = 5.48207e-09, No Iterations 1
time step continuity errors : sum local = 2.31612e-08, global = 8.29415e-17, cumulative = -7.52103e-15
rho max/min : 1.225 1.225
DILUPBiCGStab:  Solving for omega, Initial residual = 0.000442012, Final residual = 5.11429e-07, No Iterations 1
DILUPBiCGStab:  Solving for k, Initial residual = 0.0176096, Final residual = 4.17981e-06, No Iterations 1
ExecutionTime = 1.57 s  ClockTime = 2 s

Time = 1995

DILUPBiCGStab:  Solving for h, Initial residual = 0.000349839, Final residual = 5.23523e-07, No Iterations 1
GAMG:  Solving for p_rgh, Initial residual = 3.96665e-05, Final residual = 6.15712e-09, No Iterations 1
time step continuity errors : sum local = 2.54496e-08, global = 1.14383e-16, cumulative = -7.40665e-15
rho max/min : 1.225 1.225
DILUPBiCGStab:  Solving for omega, Initial residual = 0.000480302, Final residual = 3.8363e-07, No Iterations 1
DILUPBiCGStab:  Solving for k, Initial residual = 0.017253, Final residual = 4.27737e-06, No Iterations 1
ExecutionTime = 1.57 s  ClockTime = 2 s

Time = 1996

DILUPBiCGStab:  Solving for h, Initial residual = 0.000360621, Final residual = 5.24773e-07, No Iterations 1
GAMG:  Solving for p_rgh, Initial residual = 2.94043e-05, Final residual = 1.63911e-09, No Iterations 1
time step continuity errors : sum local = 6.62786e-09, global = 1.83772e-16, cumulative = -7.22288e-15
rho max/min : 1.225 1.225
DILUPBiCGStab:  Solving for omega, Initial residual = 0.000532497, Final residual = 3.57956e-07, No Iterations 1
DILUPBiCGStab:  Solving for k, Initial residual = 0.0169298, Final residual = 4.16395e-06, No Iterations 1
ExecutionTime = 1.58 s  ClockTime = 2 s

Time = 1997

DILUPBiCGStab:  Solving for h, Initial residual = 0.000363243, Final residual = 5.24894e-07, No Iterations 1
GAMG:  Solving for p_rgh, Initial residual = 2.64314e-05, Final residual = 7.57178e-09, No Iterations 1
time step continuity errors : sum local = 3.0114e-08, global = -8.13152e-17, cumulative = -7.30419e-15
rho max/min : 1.225 1.225
DILUPBiCGStab:  Solving for omega, Initial residual = 0.000592532, Final residual = 3.56612e-07, No Iterations 1
DILUPBiCGStab:  Solving for k, Initial residual = 0.0165526, Final residual = 4.598e-06, No Iterations 1
ExecutionTime = 1.58 s  ClockTime = 2 s

Time = 1998

DILUPBiCGStab:  Solving for h, Initial residual = 0.000367669, Final residual = 5.24131e-07, No Iterations 1
GAMG:  Solving for p_rgh, Initial residual = 2.7395e-05, Final residual = 1.85649e-09, No Iterations 1
time step continuity errors : sum local = 7.2616e-09, global = -1.68051e-17, cumulative = -7.321e-15
rho max/min : 1.225 1.225
DILUPBiCGStab:  Solving for omega, Initial residual = 0.000652233, Final residual = 3.83853e-07, No Iterations 1
DILUPBiCGStab:  Solving for k, Initial residual = 0.0162025, Final residual = 4.85223e-06, No Iterations 1
ExecutionTime = 1.58 s  ClockTime = 2 s

Time = 1999

DILUPBiCGStab:  Solving for h, Initial residual = 0.000371029, Final residual = 5.30845e-07, No Iterations 1
GAMG:  Solving for p_rgh, Initial residual = 2.90658e-05, Final residual = 1.29302e-09, No Iterations 1
time step continuity errors : sum local = 4.93708e-09, global = 5.52943e-17, cumulative = -7.2657e-15
rho max/min : 1.225 1.225
DILUPBiCGStab:  Solving for omega, Initial residual = 0.0100637, Final residual = 3.41289e-07, No Iterations 1
DILUPBiCGStab:  Solving for k, Initial residual = 0.184157, Final residual = 5.09426e-06, No Iterations 1
ExecutionTime = 1.58 s  ClockTime = 2 s

Time = 2000

DILUPBiCGStab:  Solving for h, Initial residual = 0.000789123, Final residual = 5.15745e-07, No Iterations 1
GAMG:  Solving for p_rgh, Initial residual = 0.000794422, Final residual = 1.98041e-07, No Iterations 1
time step continuity errors : sum local = 7.47499e-07, global = -5.42101e-18, cumulative = -7.27113e-15
rho max/min : 1.225 1.225
DILUPBiCGStab:  Solving for omega, Initial residual = 0.0177439, Final residual = 4.68015e-07, No Iterations 1
DILUPBiCGStab:  Solving for k, Initial residual = 0.0232199, Final residual = 8.55471e-06, No Iterations 1
ExecutionTime = 1.58 s  ClockTime = 2 s

End

