/*---------------------------------------------------------------------------*\
  =========                 |
  \\      /  F ield         | OpenFOAM: The Open Source CFD Toolbox
   \\    /   O peration     | Website:  https://openfoam.org
    \\  /    A nd           | Version:  7
     \\/     M anipulation  |
\*---------------------------------------------------------------------------*/
Build  : 7-3bcbaf946ae9
Exec   : simpleFoam
Date   : Jul 19 2022
Time   : 10:23:49
Host   : "Lubuntu"
PID    : 214263
I/O    : uncollated
Case   : /home/ensm_student/Documents/CFD/Rechnerubung/Week07/Parameterstudien_mit_RANS/data/raw/AOA_0
nProcs : 1
sigFpe : Enabling floating point exception trapping (FOAM_SIGFPE).
fileModificationChecking : Monitoring run-time modified files using timeStampMaster (fileModificationSkew 10)
allowSystemOperations : Allowing user-supplied system call operations

// * * * * * * * * * * * * * * * * * * * * * * * * * * * * * * * * * * * * * //
Create time

Using #calcEntry at line 21 in file "/home/ensm_student/Documents/CFD/Rechnerubung/Week07/Parameterstudien_mit_RANS/data/raw/AOA_0/system/controlDict.functions"
Using #codeStream with "/home/ensm_student/Documents/CFD/Rechnerubung/Week07/Parameterstudien_mit_RANS/data/raw/AOA_0/dynamicCode/platforms/linux64GccDPInt32Opt/lib/libcodeStream_c97e129464d72e17b9349aaa22a1268bd6da42fa.so"
Using #calcEntry at line 27 in file "/home/ensm_student/Documents/CFD/Rechnerubung/Week07/Parameterstudien_mit_RANS/data/raw/AOA_0/system/controlDict.functions"
Using #codeStream with "/home/ensm_student/Documents/CFD/Rechnerubung/Week07/Parameterstudien_mit_RANS/data/raw/AOA_0/dynamicCode/platforms/linux64GccDPInt32Opt/lib/libcodeStream_8c6314a787acd8194b0cf8679b363212e627d5db.so"
Using #calcEntry at line 32 in file "/home/ensm_student/Documents/CFD/Rechnerubung/Week07/Parameterstudien_mit_RANS/data/raw/AOA_0/system/controlDict.functions"
Using #codeStream with "/home/ensm_student/Documents/CFD/Rechnerubung/Week07/Parameterstudien_mit_RANS/data/raw/AOA_0/dynamicCode/platforms/linux64GccDPInt32Opt/lib/libcodeStream_844c9c693dfc906dd46778e4cc636c418aa6a075.so"
Using #calcEntry at line 34 in file "/home/ensm_student/Documents/CFD/Rechnerubung/Week07/Parameterstudien_mit_RANS/data/raw/AOA_0/system/controlDict.functions"
Using #codeStream with "/home/ensm_student/Documents/CFD/Rechnerubung/Week07/Parameterstudien_mit_RANS/data/raw/AOA_0/dynamicCode/platforms/linux64GccDPInt32Opt/lib/libcodeStream_8b9df0e8700141fc89ea5daab014598dae76de38.so"
Using #calcEntry at line 22 in file "/home/ensm_student/Documents/CFD/Rechnerubung/Week07/Parameterstudien_mit_RANS/data/raw/AOA_0/system/controlDict.functions"
Using #codeStream with "/home/ensm_student/Documents/CFD/Rechnerubung/Week07/Parameterstudien_mit_RANS/data/raw/AOA_0/dynamicCode/platforms/linux64GccDPInt32Opt/lib/libcodeStream_dc2f4ca89965be4b73d418a628fcaeb96e8c8a32.so"
Using #calcEntry at line 22 in file "/home/ensm_student/Documents/CFD/Rechnerubung/Week07/Parameterstudien_mit_RANS/data/raw/AOA_0/system/controlDict.functions"
Using #codeStream with "/home/ensm_student/Documents/CFD/Rechnerubung/Week07/Parameterstudien_mit_RANS/data/raw/AOA_0/dynamicCode/platforms/linux64GccDPInt32Opt/lib/libcodeStream_31dbccb6fbec83c374ef228d5bb7195fd5bc8496.so"
Using #calcEntry at line 23 in file "/home/ensm_student/Documents/CFD/Rechnerubung/Week07/Parameterstudien_mit_RANS/data/raw/AOA_0/system/controlDict.functions"
Using #calcEntry at line 23 in file "/home/ensm_student/Documents/CFD/Rechnerubung/Week07/Parameterstudien_mit_RANS/data/raw/AOA_0/system/controlDict.functions"
Using #codeStream with "/home/ensm_student/Documents/CFD/Rechnerubung/Week07/Parameterstudien_mit_RANS/data/raw/AOA_0/dynamicCode/platforms/linux64GccDPInt32Opt/lib/libcodeStream_0cb0a20337d7f5c6058bfcbbca760b64ec116729.so"
Create mesh for time = 0


SIMPLE: Convergence criteria found
        p: tolerance 0.01
        U: tolerance 0.02
        "(k|omega)": tolerance 0.001

Reading field p

Reading field U

Using #calcEntry at line 21 in file "/home/ensm_student/Documents/CFD/Rechnerubung/Week07/Parameterstudien_mit_RANS/data/raw/AOA_0/0/U"
Using #calcEntry at line 27 in file "/home/ensm_student/Documents/CFD/Rechnerubung/Week07/Parameterstudien_mit_RANS/data/raw/AOA_0/0/U"
Using #calcEntry at line 32 in file "/home/ensm_student/Documents/CFD/Rechnerubung/Week07/Parameterstudien_mit_RANS/data/raw/AOA_0/0/U"
Using #calcEntry at line 34 in file "/home/ensm_student/Documents/CFD/Rechnerubung/Week07/Parameterstudien_mit_RANS/data/raw/AOA_0/0/U"
Using #calcEntry at line 25 in file "/home/ensm_student/Documents/CFD/Rechnerubung/Week07/Parameterstudien_mit_RANS/data/raw/AOA_0/0/U"
Using #codeStream with "/home/ensm_student/Documents/CFD/Rechnerubung/Week07/Parameterstudien_mit_RANS/data/raw/AOA_0/dynamicCode/platforms/linux64GccDPInt32Opt/lib/libcodeStream_5851fc0e1d97f5e7cd4ef343b327e5d5a6571b3f.so"
Creating new library in "dynamicCode/_5851fc0e1d97f5e7cd4ef343b327e5d5a6571b3f/platforms/linux64GccDPInt32Opt/lib/libcodeStream_5851fc0e1d97f5e7cd4ef343b327e5d5a6571b3f.so"
Invoking "wmake -s libso /home/ensm_student/Documents/CFD/Rechnerubung/Week07/Parameterstudien_mit_RANS/data/raw/AOA_0/dynamicCode/_5851fc0e1d97f5e7cd4ef343b327e5d5a6571b3f"
wmake libso /home/ensm_student/Documents/CFD/Rechnerubung/Week07/Parameterstudien_mit_RANS/data/raw/AOA_0/dynamicCode/_5851fc0e1d97f5e7cd4ef343b327e5d5a6571b3f
    wmkdep: codeStreamTemplate.C
    Ctoo: codeStreamTemplate.C
    ld: /home/ensm_student/Documents/CFD/Rechnerubung/Week07/Parameterstudien_mit_RANS/data/raw/AOA_0/dynamicCode/_5851fc0e1d97f5e7cd4ef343b327e5d5a6571b3f/../platforms/linux64GccDPInt32Opt/lib/libcodeStream_5851fc0e1d97f5e7cd4ef343b327e5d5a6571b3f.so
Using #calcEntry at line 25 in file "/home/ensm_student/Documents/CFD/Rechnerubung/Week07/Parameterstudien_mit_RANS/data/raw/AOA_0/0/U"
Using #codeStream with "/home/ensm_student/Documents/CFD/Rechnerubung/Week07/Parameterstudien_mit_RANS/data/raw/AOA_0/dynamicCode/platforms/linux64GccDPInt32Opt/lib/libcodeStream_0fb88792be550b16b72493f86ed8f15646af295d.so"
Creating new library in "dynamicCode/_0fb88792be550b16b72493f86ed8f15646af295d/platforms/linux64GccDPInt32Opt/lib/libcodeStream_0fb88792be550b16b72493f86ed8f15646af295d.so"
Invoking "wmake -s libso /home/ensm_student/Documents/CFD/Rechnerubung/Week07/Parameterstudien_mit_RANS/data/raw/AOA_0/dynamicCode/_0fb88792be550b16b72493f86ed8f15646af295d"
wmake libso /home/ensm_student/Documents/CFD/Rechnerubung/Week07/Parameterstudien_mit_RANS/data/raw/AOA_0/dynamicCode/_0fb88792be550b16b72493f86ed8f15646af295d
    wmkdep: codeStreamTemplate.C
    Ctoo: codeStreamTemplate.C
    ld: /home/ensm_student/Documents/CFD/Rechnerubung/Week07/Parameterstudien_mit_RANS/data/raw/AOA_0/dynamicCode/_0fb88792be550b16b72493f86ed8f15646af295d/../platforms/linux64GccDPInt32Opt/lib/libcodeStream_0fb88792be550b16b72493f86ed8f15646af295d.so
Reading/calculating face flux field phi

Selecting incompressible transport model Newtonian
Selecting turbulence model type RAS
Selecting RAS turbulence model kOmegaSST
Using #calcEntry at line 21 in file "/home/ensm_student/Documents/CFD/Rechnerubung/Week07/Parameterstudien_mit_RANS/data/raw/AOA_0/0/nut"
Using #calcEntry at line 27 in file "/home/ensm_student/Documents/CFD/Rechnerubung/Week07/Parameterstudien_mit_RANS/data/raw/AOA_0/0/nut"
Using #calcEntry at line 32 in file "/home/ensm_student/Documents/CFD/Rechnerubung/Week07/Parameterstudien_mit_RANS/data/raw/AOA_0/0/nut"
Using #calcEntry at line 34 in file "/home/ensm_student/Documents/CFD/Rechnerubung/Week07/Parameterstudien_mit_RANS/data/raw/AOA_0/0/nut"
Selecting patchDistMethod meshWave
Using #calcEntry at line 21 in file "/home/ensm_student/Documents/CFD/Rechnerubung/Week07/Parameterstudien_mit_RANS/data/raw/AOA_0/0/k"
Using #calcEntry at line 27 in file "/home/ensm_student/Documents/CFD/Rechnerubung/Week07/Parameterstudien_mit_RANS/data/raw/AOA_0/0/k"
Using #calcEntry at line 32 in file "/home/ensm_student/Documents/CFD/Rechnerubung/Week07/Parameterstudien_mit_RANS/data/raw/AOA_0/0/k"
Using #calcEntry at line 34 in file "/home/ensm_student/Documents/CFD/Rechnerubung/Week07/Parameterstudien_mit_RANS/data/raw/AOA_0/0/k"
Using #calcEntry at line 21 in file "/home/ensm_student/Documents/CFD/Rechnerubung/Week07/Parameterstudien_mit_RANS/data/raw/AOA_0/0/omega"
Using #calcEntry at line 27 in file "/home/ensm_student/Documents/CFD/Rechnerubung/Week07/Parameterstudien_mit_RANS/data/raw/AOA_0/0/omega"
Using #calcEntry at line 32 in file "/home/ensm_student/Documents/CFD/Rechnerubung/Week07/Parameterstudien_mit_RANS/data/raw/AOA_0/0/omega"
Using #calcEntry at line 34 in file "/home/ensm_student/Documents/CFD/Rechnerubung/Week07/Parameterstudien_mit_RANS/data/raw/AOA_0/0/omega"
RAS
{
    RASModel        kOmegaSST;
    turbulence      on;
    printCoeffs     on;
    alphaK1         0.85;
    alphaK2         1;
    alphaOmega1     0.5;
    alphaOmega2     0.856;
    gamma1          0.555556;
    gamma2          0.44;
    beta1           0.075;
    beta2           0.0828;
    betaStar        0.09;
    a1              0.31;
    b1              1;
    c1              10;
    F3              false;
}

No MRF models present

No finite volume options present

Starting time loop

--> FOAM Warning : 
    From function bool Foam::functionObjectList::read()
    in file db/functionObjects/functionObjectList/functionObjectList.C at line 682
    Reading "/home/ensm_student/Documents/CFD/Rechnerubung/Week07/Parameterstudien_mit_RANS/data/raw/AOA_0/system/controlDict" from line 18 to line 17
    Entry mag_U_infty is not a dictionary
--> FOAM Warning : 
    From function bool Foam::functionObjectList::read()
    in file db/functionObjects/functionObjectList/functionObjectList.C at line 682
    Reading "/home/ensm_student/Documents/CFD/Rechnerubung/Week07/Parameterstudien_mit_RANS/data/raw/AOA_0/system/controlDict" from line 18 to line 17
    Entry alpha_DEG is not a dictionary
--> FOAM Warning : 
    From function bool Foam::functionObjectList::read()
    in file db/functionObjects/functionObjectList/functionObjectList.C at line 682
    Reading "/home/ensm_student/Documents/CFD/Rechnerubung/Week07/Parameterstudien_mit_RANS/data/raw/AOA_0/system/controlDict" from line 18 to line 17
    Entry alpha_RAD is not a dictionary
--> FOAM Warning : 
    From function bool Foam::functionObjectList::read()
    in file db/functionObjects/functionObjectList/functionObjectList.C at line 682
    Reading "/home/ensm_student/Documents/CFD/Rechnerubung/Week07/Parameterstudien_mit_RANS/data/raw/AOA_0/system/controlDict" from line 18 to line 17
    Entry intensity is not a dictionary
--> FOAM Warning : 
    From function bool Foam::functionObjectList::read()
    in file db/functionObjects/functionObjectList/functionObjectList.C at line 682
    Reading "/home/ensm_student/Documents/CFD/Rechnerubung/Week07/Parameterstudien_mit_RANS/data/raw/AOA_0/system/controlDict" from line 18 to line 17
    Entry k_inlet is not a dictionary
--> FOAM Warning : 
    From function bool Foam::functionObjectList::read()
    in file db/functionObjects/functionObjectList/functionObjectList.C at line 682
    Reading "/home/ensm_student/Documents/CFD/Rechnerubung/Week07/Parameterstudien_mit_RANS/data/raw/AOA_0/system/controlDict" from line 18 to line 17
    Entry beta_1 is not a dictionary
--> FOAM Warning : 
    From function bool Foam::functionObjectList::read()
    in file db/functionObjects/functionObjectList/functionObjectList.C at line 682
    Reading "/home/ensm_student/Documents/CFD/Rechnerubung/Week07/Parameterstudien_mit_RANS/data/raw/AOA_0/system/controlDict" from line 18 to line 17
    Entry nu is not a dictionary
--> FOAM Warning : 
    From function bool Foam::functionObjectList::read()
    in file db/functionObjects/functionObjectList/functionObjectList.C at line 682
    Reading "/home/ensm_student/Documents/CFD/Rechnerubung/Week07/Parameterstudien_mit_RANS/data/raw/AOA_0/system/controlDict" from line 18 to line 17
    Entry del_y_1 is not a dictionary
--> FOAM Warning : 
    From function bool Foam::functionObjectList::read()
    in file db/functionObjects/functionObjectList/functionObjectList.C at line 682
    Reading "/home/ensm_student/Documents/CFD/Rechnerubung/Week07/Parameterstudien_mit_RANS/data/raw/AOA_0/system/controlDict" from line 18 to line 17
    Entry omega is not a dictionary
--> FOAM Warning : 
    From function bool Foam::functionObjectList::read()
    in file db/functionObjects/functionObjectList/functionObjectList.C at line 682
    Reading "/home/ensm_student/Documents/CFD/Rechnerubung/Week07/Parameterstudien_mit_RANS/data/raw/AOA_0/system/controlDict" from line 18 to line 17
    Entry nut is not a dictionary
--> FOAM Warning : 
    From function bool Foam::functionObjectList::read()
    in file db/functionObjects/functionObjectList/functionObjectList.C at line 682
    Reading "/home/ensm_student/Documents/CFD/Rechnerubung/Week07/Parameterstudien_mit_RANS/data/raw/AOA_0/system/controlDict" from line 18 to line 17
    Entry x_ is not a dictionary
--> FOAM Warning : 
    From function bool Foam::functionObjectList::read()
    in file db/functionObjects/functionObjectList/functionObjectList.C at line 682
    Reading "/home/ensm_student/Documents/CFD/Rechnerubung/Week07/Parameterstudien_mit_RANS/data/raw/AOA_0/system/controlDict" from line 18 to line 17
    Entry y_ is not a dictionary
--> FOAM Warning : 
    From function void Foam::timeControl::read(const Foam::dictionary&)
    in file db/functionObjects/timeControl/timeControl.C at line 89
    Reading "/home/ensm_student/Documents/CFD/Rechnerubung/Week07/Parameterstudien_mit_RANS/data/raw/AOA_0/system/controlDict.functions.forceCoeffs_object" from line 28 to line 48
    Using deprecated 'outputControl'
    Please use 'writeControl' with 'writeInterval'
forces forceCoeffs_object:
    Not including porosity effects
forceCoeffs forceCoeffs_object:
    Not including porosity effects
--> FOAM Warning : 
    From function void Foam::timeControl::read(const Foam::dictionary&)
    in file db/functionObjects/timeControl/timeControl.C at line 89
    Reading "/home/ensm_student/Documents/CFD/Rechnerubung/Week07/Parameterstudien_mit_RANS/data/raw/AOA_0/system/controlDict.functions.residuals" from line 19 to line 31
    Using deprecated 'outputControl'
    Please use 'writeControl' with 'writeInterval'
Time = 1

smoothSolver:  Solving for Ux, Initial residual = 1, Final residual = 0.0945007, No Iterations 23
smoothSolver:  Solving for Uy, Initial residual = 1, Final residual = 0.0994914, No Iterations 24
GAMG:  Solving for p, Initial residual = 1, Final residual = 0.00854816, No Iterations 28
time step continuity errors : sum local = 1.23721e-05, global = -2.64842e-06, cumulative = -2.64842e-06
smoothSolver:  Solving for omega, Initial residual = 0.00137689, Final residual = 0.000111073, No Iterations 3
bounding omega, min: -13.2641 max: 1873.49 average: 23.1381
smoothSolver:  Solving for k, Initial residual = 1, Final residual = 0.0597474, No Iterations 3
ExecutionTime = 0.11 s  ClockTime = 1 s

forceCoeffs forceCoeffs_object write:
    Cm    = 0.00433162
    Cd    = -0.0100704
    Cl    = 0.218389
    Cl(f) = 0.113526
    Cl(r) = 0.104863

Time = 2

smoothSolver:  Solving for Ux, Initial residual = 0.0146851, Final residual = 0.00129652, No Iterations 13
smoothSolver:  Solving for Uy, Initial residual = 0.339319, Final residual = 0.0332744, No Iterations 13
GAMG:  Solving for p, Initial residual = 0.408051, Final residual = 0.00318513, No Iterations 19
time step continuity errors : sum local = 5.69309e-05, global = -1.9407e-05, cumulative = -2.20555e-05
smoothSolver:  Solving for omega, Initial residual = 0.00354775, Final residual = 0.000195826, No Iterations 3
bounding omega, min: -1.02631 max: 20334.8 average: 52.1186
smoothSolver:  Solving for k, Initial residual = 0.216496, Final residual = 0.0154168, No Iterations 3
ExecutionTime = 0.14 s  ClockTime = 1 s

forceCoeffs forceCoeffs_object write:
    Cm    = -0.0274646
    Cd    = 0.0674775
    Cl    = 0.137163
    Cl(f) = 0.0411167
    Cl(r) = 0.0960459

Time = 3

smoothSolver:  Solving for Ux, Initial residual = 0.00650525, Final residual = 0.000603847, No Iterations 12
smoothSolver:  Solving for Uy, Initial residual = 0.262868, Final residual = 0.0237674, No Iterations 13
GAMG:  Solving for p, Initial residual = 0.0534676, Final residual = 0.000384526, No Iterations 21
time step continuity errors : sum local = 3.64164e-05, global = -4.00982e-06, cumulative = -2.60653e-05
smoothSolver:  Solving for omega, Initial residual = 0.00240564, Final residual = 0.000231518, No Iterations 2
bounding omega, min: -355.496 max: 15364.4 average: 78.4623
smoothSolver:  Solving for k, Initial residual = 0.0537615, Final residual = 0.00368316, No Iterations 3
ExecutionTime = 0.17 s  ClockTime = 1 s

forceCoeffs forceCoeffs_object write:
    Cm    = -0.0125733
    Cd    = 0.0481841
    Cl    = 0.0641616
    Cl(f) = 0.0195076
    Cl(r) = 0.0446541

Time = 4

smoothSolver:  Solving for Ux, Initial residual = 0.00451902, Final residual = 0.000440852, No Iterations 11
smoothSolver:  Solving for Uy, Initial residual = 0.160105, Final residual = 0.0151258, No Iterations 13
GAMG:  Solving for p, Initial residual = 0.105893, Final residual = 0.00105454, No Iterations 16
time step continuity errors : sum local = 4.97054e-05, global = -1.64037e-05, cumulative = -4.2469e-05
smoothSolver:  Solving for omega, Initial residual = 0.00149484, Final residual = 0.000108317, No Iterations 2
smoothSolver:  Solving for k, Initial residual = 0.0190194, Final residual = 0.00126577, No Iterations 3
ExecutionTime = 0.2 s  ClockTime = 1 s

forceCoeffs forceCoeffs_object write:
    Cm    = -0.000788338
    Cd    = 0.0197244
    Cl    = 0.0237741
    Cl(f) = 0.0110987
    Cl(r) = 0.0126754

Time = 5

smoothSolver:  Solving for Ux, Initial residual = 0.00356209, Final residual = 0.000342242, No Iterations 11
smoothSolver:  Solving for Uy, Initial residual = 0.108899, Final residual = 0.0101786, No Iterations 13
GAMG:  Solving for p, Initial residual = 0.0639692, Final residual = 0.000590177, No Iterations 13
time step continuity errors : sum local = 3.74159e-05, global = 3.75403e-06, cumulative = -3.8715e-05
smoothSolver:  Solving for omega, Initial residual = 0.0010688, Final residual = 6.88676e-05, No Iterations 2
bounding omega, min: -0.657493 max: 11513.9 average: 102.522
smoothSolver:  Solving for k, Initial residual = 0.00702162, Final residual = 0.00048481, No Iterations 3
ExecutionTime = 0.23 s  ClockTime = 1 s

forceCoeffs forceCoeffs_object write:
    Cm    = 0.00199821
    Cd    = 0.00920827
    Cl    = 0.00830452
    Cl(f) = 0.00615047
    Cl(r) = 0.00215404

Time = 6

smoothSolver:  Solving for Ux, Initial residual = 0.00266797, Final residual = 0.000264919, No Iterations 10
smoothSolver:  Solving for Uy, Initial residual = 0.098997, Final residual = 0.00959611, No Iterations 13
GAMG:  Solving for p, Initial residual = 0.0804576, Final residual = 0.000728342, No Iterations 11
time step continuity errors : sum local = 2.56971e-05, global = 1.96357e-06, cumulative = -3.67514e-05
smoothSolver:  Solving for omega, Initial residual = 0.000804104, Final residual = 6.30526e-05, No Iterations 2
smoothSolver:  Solving for k, Initial residual = 0.00388942, Final residual = 0.00025566, No Iterations 3
ExecutionTime = 0.25 s  ClockTime = 1 s

forceCoeffs forceCoeffs_object write:
    Cm    = 0.00810336
    Cd    = -0.00639859
    Cl    = 0.00764138
    Cl(f) = 0.0119241
    Cl(r) = -0.00428267

Time = 7

smoothSolver:  Solving for Ux, Initial residual = 0.00232062, Final residual = 0.000213816, No Iterations 11
smoothSolver:  Solving for Uy, Initial residual = 0.0977772, Final residual = 0.00878673, No Iterations 14
GAMG:  Solving for p, Initial residual = 0.0883801, Final residual = 0.000868995, No Iterations 12
time step continuity errors : sum local = 2.2907e-05, global = -4.73238e-06, cumulative = -4.14838e-05
smoothSolver:  Solving for omega, Initial residual = 0.00063912, Final residual = 4.99099e-05, No Iterations 2
smoothSolver:  Solving for k, Initial residual = 0.00299776, Final residual = 0.000195758, No Iterations 3
ExecutionTime = 0.28 s  ClockTime = 1 s

forceCoeffs forceCoeffs_object write:
    Cm    = 0.0138893
    Cd    = -0.0256792
    Cl    = 0.0121542
    Cl(f) = 0.0199664
    Cl(r) = -0.00781214

Time = 8

smoothSolver:  Solving for Ux, Initial residual = 0.00195045, Final residual = 0.00019192, No Iterations 11
smoothSolver:  Solving for Uy, Initial residual = 0.0595033, Final residual = 0.00544739, No Iterations 14
GAMG:  Solving for p, Initial residual = 0.0736314, Final residual = 0.000707872, No Iterations 13
time step continuity errors : sum local = 2.04384e-05, global = 7.46469e-06, cumulative = -3.40191e-05
smoothSolver:  Solving for omega, Initial residual = 0.000511548, Final residual = 4.34584e-05, No Iterations 2
smoothSolver:  Solving for k, Initial residual = 0.00236177, Final residual = 0.000147304, No Iterations 3
ExecutionTime = 0.3 s  ClockTime = 1 s

forceCoeffs forceCoeffs_object write:
    Cm    = 0.0143097
    Cd    = -0.0335718
    Cl    = 0.0179142
    Cl(f) = 0.0232668
    Cl(r) = -0.00535262

Time = 9

smoothSolver:  Solving for Ux, Initial residual = 0.00178128, Final residual = 0.000167598, No Iterations 11
smoothSolver:  Solving for Uy, Initial residual = 0.0393335, Final residual = 0.00386501, No Iterations 13
GAMG:  Solving for p, Initial residual = 0.067251, Final residual = 0.000648682, No Iterations 15
time step continuity errors : sum local = 1.68524e-05, global = 7.05817e-06, cumulative = -2.69609e-05
smoothSolver:  Solving for omega, Initial residual = 0.000436794, Final residual = 3.39183e-05, No Iterations 2
smoothSolver:  Solving for k, Initial residual = 0.00171549, Final residual = 0.000108048, No Iterations 3
ExecutionTime = 0.33 s  ClockTime = 1 s

forceCoeffs forceCoeffs_object write:
    Cm    = 0.0115814
    Cd    = -0.0341807
    Cl    = 0.0223296
    Cl(f) = 0.0227462
    Cl(r) = -0.000416663

Time = 10

smoothSolver:  Solving for Ux, Initial residual = 0.00166538, Final residual = 0.000150555, No Iterations 12
smoothSolver:  Solving for Uy, Initial residual = 0.0293775, Final residual = 0.00291386, No Iterations 13
GAMG:  Solving for p, Initial residual = 0.056734, Final residual = 0.00051895, No Iterations 14
time step continuity errors : sum local = 1.50889e-05, global = 3.81826e-06, cumulative = -2.31427e-05
smoothSolver:  Solving for omega, Initial residual = 0.000392388, Final residual = 3.8614e-05, No Iterations 2
smoothSolver:  Solving for k, Initial residual = 0.00140661, Final residual = 8.00025e-05, No Iterations 3
bounding k, min: -0.00171662 max: 3.51378 average: 0.0278859
ExecutionTime = 0.36 s  ClockTime = 1 s

forceCoeffs forceCoeffs_object write:
    Cm    = 0.00657522
    Cd    = -0.0289467
    Cl    = 0.0250728
    Cl(f) = 0.0191116
    Cl(r) = 0.00596116

Time = 11

smoothSolver:  Solving for Ux, Initial residual = 0.00159912, Final residual = 0.000148378, No Iterations 12
smoothSolver:  Solving for Uy, Initial residual = 0.0234488, Final residual = 0.00206618, No Iterations 14
GAMG:  Solving for p, Initial residual = 0.0426626, Final residual = 0.000381216, No Iterations 19
time step continuity errors : sum local = 1.16814e-05, global = -4.77623e-06, cumulative = -2.79189e-05
smoothSolver:  Solving for omega, Initial residual = 0.000353306, Final residual = 3.44047e-05, No Iterations 2
smoothSolver:  Solving for k, Initial residual = 0.00102184, Final residual = 6.18501e-05, No Iterations 3
bounding k, min: -0.0135424 max: 3.75706 average: 0.032378
ExecutionTime = 0.39 s  ClockTime = 1 s

forceCoeffs forceCoeffs_object write:
    Cm    = -0.000270929
    Cd    = -0.0183182
    Cl    = 0.0264473
    Cl(f) = 0.0129527
    Cl(r) = 0.0134946

Time = 12

smoothSolver:  Solving for Ux, Initial residual = 0.00165872, Final residual = 0.00014473, No Iterations 13
smoothSolver:  Solving for Uy, Initial residual = 0.0227012, Final residual = 0.0020515, No Iterations 14
GAMG:  Solving for p, Initial residual = 0.0413184, Final residual = 0.000391429, No Iterations 13
time step continuity errors : sum local = 1.19059e-05, global = -8.76322e-07, cumulative = -2.87952e-05
smoothSolver:  Solving for omega, Initial residual = 0.000305107, Final residual = 1.45693e-05, No Iterations 3
smoothSolver:  Solving for k, Initial residual = 0.000908373, Final residual = 5.26787e-05, No Iterations 3
bounding k, min: -0.000751807 max: 3.85072 average: 0.0375483
ExecutionTime = 0.41 s  ClockTime = 2 s

forceCoeffs forceCoeffs_object write:
    Cm    = -0.0079303
    Cd    = -0.00320511
    Cl    = 0.026944
    Cl(f) = 0.00554171
    Cl(r) = 0.0214023

Time = 13

smoothSolver:  Solving for Ux, Initial residual = 0.00176333, Final residual = 0.000155958, No Iterations 13
smoothSolver:  Solving for Uy, Initial residual = 0.0253877, Final residual = 0.0023028, No Iterations 14
GAMG:  Solving for p, Initial residual = 0.0404145, Final residual = 0.000319042, No Iterations 15
time step continuity errors : sum local = 9.12636e-06, global = 2.09998e-06, cumulative = -2.66952e-05
smoothSolver:  Solving for omega, Initial residual = 0.000279345, Final residual = 1.2258e-05, No Iterations 3
smoothSolver:  Solving for k, Initial residual = 0.000730563, Final residual = 4.45041e-05, No Iterations 3
ExecutionTime = 0.44 s  ClockTime = 2 s

forceCoeffs forceCoeffs_object write:
    Cm    = -0.0164415
    Cd    = 0.0160127
    Cl    = 0.0270469
    Cl(f) = -0.00291806
    Cl(r) = 0.029965

Time = 14

smoothSolver:  Solving for Ux, Initial residual = 0.00194863, Final residual = 0.000172348, No Iterations 13
smoothSolver:  Solving for Uy, Initial residual = 0.0349784, Final residual = 0.00308699, No Iterations 14
GAMG:  Solving for p, Initial residual = 0.0512888, Final residual = 0.000462194, No Iterations 17
time step continuity errors : sum local = 1.01435e-05, global = 2.98346e-06, cumulative = -2.37118e-05
smoothSolver:  Solving for omega, Initial residual = 0.000259886, Final residual = 1.13614e-05, No Iterations 3
smoothSolver:  Solving for k, Initial residual = 0.000681797, Final residual = 4.10032e-05, No Iterations 3
bounding k, min: -0.00116939 max: 4.02534 average: 0.0450035
ExecutionTime = 0.47 s  ClockTime = 2 s

forceCoeffs forceCoeffs_object write:
    Cm    = -0.0254121
    Cd    = 0.0393612
    Cl    = 0.0268037
    Cl(f) = -0.0120103
    Cl(r) = 0.038814

Time = 15

smoothSolver:  Solving for Ux, Initial residual = 0.00207145, Final residual = 0.000206075, No Iterations 12
smoothSolver:  Solving for Uy, Initial residual = 0.0637654, Final residual = 0.00624854, No Iterations 13
GAMG:  Solving for p, Initial residual = 0.0811247, Final residual = 0.000757254, No Iterations 17
time step continuity errors : sum local = 1.02811e-05, global = 3.77501e-06, cumulative = -1.99368e-05
smoothSolver:  Solving for omega, Initial residual = 0.000248374, Final residual = 1.03721e-05, No Iterations 3
smoothSolver:  Solving for k, Initial residual = 0.000627451, Final residual = 3.43032e-05, No Iterations 3
bounding k, min: -0.000350147 max: 4.09301 average: 0.0477969
ExecutionTime = 0.5 s  ClockTime = 2 s

forceCoeffs forceCoeffs_object write:
    Cm    = -0.0339381
    Cd    = 0.0644288
    Cl    = 0.0262044
    Cl(f) = -0.0208359
    Cl(r) = 0.0470403

Time = 16

smoothSolver:  Solving for Ux, Initial residual = 0.00214899, Final residual = 0.000211821, No Iterations 12
smoothSolver:  Solving for Uy, Initial residual = 0.0493885, Final residual = 0.00475151, No Iterations 13
GAMG:  Solving for p, Initial residual = 0.0503553, Final residual = 0.000500952, No Iterations 16
time step continuity errors : sum local = 1.09278e-05, global = -4.40084e-06, cumulative = -2.43376e-05
smoothSolver:  Solving for omega, Initial residual = 0.000239799, Final residual = 2.39008e-05, No Iterations 2
smoothSolver:  Solving for k, Initial residual = 0.000631429, Final residual = 3.37097e-05, No Iterations 3
ExecutionTime = 0.53 s  ClockTime = 2 s

forceCoeffs forceCoeffs_object write:
    Cm    = -0.0430177
    Cd    = 0.0926714
    Cl    = 0.0249172
    Cl(f) = -0.0305591
    Cl(r) = 0.0554763

Time = 17

smoothSolver:  Solving for Ux, Initial residual = 0.00218119, Final residual = 0.000217777, No Iterations 12
smoothSolver:  Solving for Uy, Initial residual = 0.0271512, Final residual = 0.00260484, No Iterations 13
GAMG:  Solving for p, Initial residual = 0.0341286, Final residual = 0.000338361, No Iterations 16
time step continuity errors : sum local = 1.07223e-05, global = -4.66157e-06, cumulative = -2.89992e-05
smoothSolver:  Solving for omega, Initial residual = 0.000236176, Final residual = 9.46057e-06, No Iterations 3
smoothSolver:  Solving for k, Initial residual = 0.000640225, Final residual = 3.32828e-05, No Iterations 3
bounding k, min: -0.000626307 max: 4.16739 average: 0.0526161
ExecutionTime = 0.55 s  ClockTime = 2 s

forceCoeffs forceCoeffs_object write:
    Cm    = -0.0532104
    Cd    = 0.124941
    Cl    = 0.0229265
    Cl(f) = -0.0417471
    Cl(r) = 0.0646736

Time = 18

smoothSolver:  Solving for Ux, Initial residual = 0.00221414, Final residual = 0.000199049, No Iterations 13
smoothSolver:  Solving for Uy, Initial residual = 0.0187586, Final residual = 0.00180451, No Iterations 13
GAMG:  Solving for p, Initial residual = 0.0273776, Final residual = 0.000227183, No Iterations 17
time step continuity errors : sum local = 9.39022e-06, global = 4.40039e-06, cumulative = -2.45988e-05
smoothSolver:  Solving for omega, Initial residual = 0.000230529, Final residual = 9.46024e-06, No Iterations 3
smoothSolver:  Solving for k, Initial residual = 0.000645557, Final residual = 3.36146e-05, No Iterations 3
ExecutionTime = 0.58 s  ClockTime = 2 s

forceCoeffs forceCoeffs_object write:
    Cm    = -0.0656371
    Cd    = 0.163012
    Cl    = 0.020207
    Cl(f) = -0.0555335
    Cl(r) = 0.0757406

Time = 19

smoothSolver:  Solving for Ux, Initial residual = 0.00226732, Final residual = 0.000214825, No Iterations 13
smoothSolver:  Solving for Uy, Initial residual = 0.0148449, Final residual = 0.0014412, No Iterations 13
GAMG:  Solving for p, Initial residual = 0.02289, Final residual = 0.000210608, No Iterations 18
time step continuity errors : sum local = 1.00627e-05, global = -4.72348e-06, cumulative = -2.93222e-05
smoothSolver:  Solving for omega, Initial residual = 0.000232508, Final residual = 1.06146e-05, No Iterations 3
smoothSolver:  Solving for k, Initial residual = 0.000630737, Final residual = 3.38964e-05, No Iterations 3
ExecutionTime = 0.61 s  ClockTime = 2 s

forceCoeffs forceCoeffs_object write:
    Cm    = -0.0785225
    Cd    = 0.201794
    Cl    = 0.016978
    Cl(f) = -0.0700336
    Cl(r) = 0.0870115

Time = 20

smoothSolver:  Solving for Ux, Initial residual = 0.00237988, Final residual = 0.000234718, No Iterations 13
smoothSolver:  Solving for Uy, Initial residual = 0.012655, Final residual = 0.00126385, No Iterations 13
GAMG:  Solving for p, Initial residual = 0.0215432, Final residual = 0.000184531, No Iterations 20
time step continuity errors : sum local = 9.45178e-06, global = -4.11714e-06, cumulative = -3.34394e-05
smoothSolver:  Solving for omega, Initial residual = 0.000227924, Final residual = 1.04238e-05, No Iterations 3
smoothSolver:  Solving for k, Initial residual = 0.000598631, Final residual = 3.18596e-05, No Iterations 3
ExecutionTime = 0.64 s  ClockTime = 2 s

forceCoeffs forceCoeffs_object write:
    Cm    = -0.0830475
    Cd    = 0.222376
    Cl    = 0.0136785
    Cl(f) = -0.0762083
    Cl(r) = 0.0898868

Time = 21

smoothSolver:  Solving for Ux, Initial residual = 0.00251984, Final residual = 0.000247326, No Iterations 13
smoothSolver:  Solving for Uy, Initial residual = 0.0113023, Final residual = 0.00103281, No Iterations 14
GAMG:  Solving for p, Initial residual = 0.0222256, Final residual = 0.000179979, No Iterations 22
time step continuity errors : sum local = 8.68909e-06, global = -3.05132e-06, cumulative = -3.64907e-05
smoothSolver:  Solving for omega, Initial residual = 0.000201002, Final residual = 8.49236e-06, No Iterations 3
smoothSolver:  Solving for k, Initial residual = 0.00055339, Final residual = 2.73823e-05, No Iterations 3
bounding k, min: -0.0023329 max: 4.21731 average: 0.0617088
ExecutionTime = 0.67 s  ClockTime = 2 s

forceCoeffs forceCoeffs_object write:
    Cm    = -0.0775503
    Cd    = 0.221212
    Cl    = 0.0113148
    Cl(f) = -0.0718928
    Cl(r) = 0.0832077

Time = 22

smoothSolver:  Solving for Ux, Initial residual = 0.00279256, Final residual = 0.000276128, No Iterations 13
smoothSolver:  Solving for Uy, Initial residual = 0.0107665, Final residual = 0.00101175, No Iterations 14
GAMG:  Solving for p, Initial residual = 0.0247751, Final residual = 0.00024094, No Iterations 20
time step continuity errors : sum local = 9.3723e-06, global = -3.30038e-06, cumulative = -3.97911e-05
smoothSolver:  Solving for omega, Initial residual = 0.000180564, Final residual = 8.12862e-06, No Iterations 3
smoothSolver:  Solving for k, Initial residual = 0.000529478, Final residual = 2.75603e-05, No Iterations 3
bounding k, min: -0.0162927 max: 4.22113 average: 0.0625498
ExecutionTime = 0.7 s  ClockTime = 2 s

forceCoeffs forceCoeffs_object write:
    Cm    = -0.0631245
    Cd    = 0.199212
    Cl    = 0.0101003
    Cl(f) = -0.0580743
    Cl(r) = 0.0681747

Time = 23

smoothSolver:  Solving for Ux, Initial residual = 0.00332093, Final residual = 0.000297265, No Iterations 14
smoothSolver:  Solving for Uy, Initial residual = 0.0107141, Final residual = 0.00101725, No Iterations 14
GAMG:  Solving for p, Initial residual = 0.0325691, Final residual = 0.000315215, No Iterations 18
time step continuity errors : sum local = 8.59291e-06, global = 2.39177e-06, cumulative = -3.73993e-05
smoothSolver:  Solving for omega, Initial residual = 0.00016245, Final residual = 7.4816e-06, No Iterations 3
smoothSolver:  Solving for k, Initial residual = 0.000505217, Final residual = 2.59166e-05, No Iterations 3
ExecutionTime = 0.73 s  ClockTime = 2 s

forceCoeffs forceCoeffs_object write:
    Cm    = -0.0449048
    Cd    = 0.166425
    Cl    = 0.00996424
    Cl(f) = -0.0399227
    Cl(r) = 0.0498869

Time = 24

smoothSolver:  Solving for Ux, Initial residual = 0.00395528, Final residual = 0.000372756, No Iterations 14
smoothSolver:  Solving for Uy, Initial residual = 0.0115744, Final residual = 0.00110138, No Iterations 14
GAMG:  Solving for p, Initial residual = 0.0484032, Final residual = 0.000412788, No Iterations 16
time step continuity errors : sum local = 6.82791e-06, global = 1.56692e-06, cumulative = -3.58324e-05
smoothSolver:  Solving for omega, Initial residual = 0.000147274, Final residual = 7.29102e-06, No Iterations 3
smoothSolver:  Solving for k, Initial residual = 0.000474286, Final residual = 2.39216e-05, No Iterations 3
ExecutionTime = 0.76 s  ClockTime = 2 s

forceCoeffs forceCoeffs_object write:
    Cm    = -0.0305642
    Cd    = 0.13924
    Cl    = 0.0100554
    Cl(f) = -0.0255365
    Cl(r) = 0.0355919

Time = 25

smoothSolver:  Solving for Ux, Initial residual = 0.00450622, Final residual = 0.000433124, No Iterations 14
smoothSolver:  Solving for Uy, Initial residual = 0.0131105, Final residual = 0.00125882, No Iterations 14
GAMG:  Solving for p, Initial residual = 0.0706511, Final residual = 0.000624669, No Iterations 15
time step continuity errors : sum local = 6.812e-06, global = -1.7094e-06, cumulative = -3.75418e-05
smoothSolver:  Solving for omega, Initial residual = 0.000132596, Final residual = 6.85534e-06, No Iterations 3
smoothSolver:  Solving for k, Initial residual = 0.000446042, Final residual = 2.28178e-05, No Iterations 3
ExecutionTime = 0.79 s  ClockTime = 2 s

forceCoeffs forceCoeffs_object write:
    Cm    = -0.0211778
    Cd    = 0.120364
    Cl    = 0.0100702
    Cl(f) = -0.0161427
    Cl(r) = 0.0262129

Time = 26

smoothSolver:  Solving for Ux, Initial residual = 0.00490535, Final residual = 0.000468194, No Iterations 14
smoothSolver:  Solving for Uy, Initial residual = 0.0151398, Final residual = 0.00141112, No Iterations 14
GAMG:  Solving for p, Initial residual = 0.050031, Final residual = 0.00046916, No Iterations 14
time step continuity errors : sum local = 7.44432e-06, global = 2.06367e-06, cumulative = -3.54781e-05
smoothSolver:  Solving for omega, Initial residual = 0.000119704, Final residual = 6.65301e-06, No Iterations 3
smoothSolver:  Solving for k, Initial residual = 0.000414398, Final residual = 2.22752e-05, No Iterations 3
ExecutionTime = 0.81 s  ClockTime = 2 s

forceCoeffs forceCoeffs_object write:
    Cm    = -0.0154119
    Cd    = 0.107563
    Cl    = 0.00998599
    Cl(f) = -0.0104189
    Cl(r) = 0.0204049

Time = 27

smoothSolver:  Solving for Ux, Initial residual = 0.00523365, Final residual = 0.000484696, No Iterations 14
smoothSolver:  Solving for Uy, Initial residual = 0.0183534, Final residual = 0.00162345, No Iterations 14
GAMG:  Solving for p, Initial residual = 0.0417968, Final residual = 0.000396934, No Iterations 14
time step continuity errors : sum local = 7.56194e-06, global = 2.06047e-06, cumulative = -3.34177e-05
smoothSolver:  Solving for omega, Initial residual = 0.000112023, Final residual = 6.1395e-06, No Iterations 3
smoothSolver:  Solving for k, Initial residual = 0.000396094, Final residual = 2.12454e-05, No Iterations 3
ExecutionTime = 0.84 s  ClockTime = 2 s

forceCoeffs forceCoeffs_object write:
    Cm    = -0.0117035
    Cd    = 0.0981686
    Cl    = 0.00985128
    Cl(f) = -0.00677782
    Cl(r) = 0.0166291

Time = 28

smoothSolver:  Solving for Ux, Initial residual = 0.0055423, Final residual = 0.000498461, No Iterations 14
smoothSolver:  Solving for Uy, Initial residual = 0.0240054, Final residual = 0.00230324, No Iterations 13
GAMG:  Solving for p, Initial residual = 0.0345632, Final residual = 0.000337396, No Iterations 14
time step continuity errors : sum local = 7.40181e-06, global = 2.02038e-06, cumulative = -3.13973e-05
smoothSolver:  Solving for omega, Initial residual = 0.000104953, Final residual = 6.0148e-06, No Iterations 3
smoothSolver:  Solving for k, Initial residual = 0.000377973, Final residual = 2.06039e-05, No Iterations 3
ExecutionTime = 0.86 s  ClockTime = 2 s

forceCoeffs forceCoeffs_object write:
    Cm    = -0.0091061
    Cd    = 0.0906848
    Cl    = 0.00975204
    Cl(f) = -0.00423008
    Cl(r) = 0.0139821

Time = 29

smoothSolver:  Solving for Ux, Initial residual = 0.0056868, Final residual = 0.000564376, No Iterations 13
smoothSolver:  Solving for Uy, Initial residual = 0.0348772, Final residual = 0.00319461, No Iterations 13
GAMG:  Solving for p, Initial residual = 0.0316131, Final residual = 0.000292673, No Iterations 14
time step continuity errors : sum local = 7.20256e-06, global = 2.02385e-06, cumulative = -2.93734e-05
smoothSolver:  Solving for omega, Initial residual = 9.77455e-05, Final residual = 5.50337e-06, No Iterations 3
smoothSolver:  Solving for k, Initial residual = 0.000366272, Final residual = 1.93559e-05, No Iterations 3
ExecutionTime = 0.89 s  ClockTime = 2 s

forceCoeffs forceCoeffs_object write:
    Cm    = -0.00714685
    Cd    = 0.0843716
    Cl    = 0.00968116
    Cl(f) = -0.00230627
    Cl(r) = 0.0119874

Time = 30

smoothSolver:  Solving for Ux, Initial residual = 0.00563388, Final residual = 0.000532865, No Iterations 13
smoothSolver:  Solving for Uy, Initial residual = 0.0563754, Final residual = 0.00501023, No Iterations 13
GAMG:  Solving for p, Initial residual = 0.028889, Final residual = 0.000242289, No Iterations 14
time step continuity errors : sum local = 6.66852e-06, global = 1.87182e-06, cumulative = -2.75016e-05
smoothSolver:  Solving for omega, Initial residual = 9.28258e-05, Final residual = 5.31078e-06, No Iterations 3
smoothSolver:  Solving for k, Initial residual = 0.000353289, Final residual = 1.79921e-05, No Iterations 3
ExecutionTime = 0.91 s  ClockTime = 2 s

forceCoeffs forceCoeffs_object write:
    Cm    = -0.00557044
    Cd    = 0.0788118
    Cl    = 0.00965419
    Cl(f) = -0.000743348
    Cl(r) = 0.0103975

Time = 31

smoothSolver:  Solving for Ux, Initial residual = 0.00553251, Final residual = 0.000500981, No Iterations 13
smoothSolver:  Solving for Uy, Initial residual = 0.0531398, Final residual = 0.004761, No Iterations 13
GAMG:  Solving for p, Initial residual = 0.0257042, Final residual = 0.000231121, No Iterations 14
time step continuity errors : sum local = 6.92389e-06, global = 1.94674e-06, cumulative = -2.55549e-05
smoothSolver:  Solving for omega, Initial residual = 9.00683e-05, Final residual = 5.03857e-06, No Iterations 3
smoothSolver:  Solving for k, Initial residual = 0.0003405, Final residual = 1.80393e-05, No Iterations 3
ExecutionTime = 0.94 s  ClockTime = 2 s

forceCoeffs forceCoeffs_object write:
    Cm    = -0.00427743
    Cd    = 0.0738237
    Cl    = 0.00968248
    Cl(f) = 0.000563809
    Cl(r) = 0.00911867

Time = 32

smoothSolver:  Solving for Ux, Initial residual = 0.0054039, Final residual = 0.000466266, No Iterations 13
smoothSolver:  Solving for Uy, Initial residual = 0.0323382, Final residual = 0.00296009, No Iterations 13
GAMG:  Solving for p, Initial residual = 0.0229059, Final residual = 0.000223405, No Iterations 15
time step continuity errors : sum local = 6.87589e-06, global = -1.15839e-06, cumulative = -2.67133e-05
smoothSolver:  Solving for omega, Initial residual = 8.60358e-05, Final residual = 4.94656e-06, No Iterations 3
smoothSolver:  Solving for k, Initial residual = 0.000327069, Final residual = 1.74398e-05, No Iterations 3
ExecutionTime = 0.97 s  ClockTime = 2 s

forceCoeffs forceCoeffs_object write:
    Cm    = -0.00320061
    Cd    = 0.0692483
    Cl    = 0.00974511
    Cl(f) = 0.00167194
    Cl(r) = 0.00807317

Time = 33

smoothSolver:  Solving for Ux, Initial residual = 0.00520342, Final residual = 0.000492678, No Iterations 12
smoothSolver:  Solving for Uy, Initial residual = 0.0241767, Final residual = 0.00226493, No Iterations 13
GAMG:  Solving for p, Initial residual = 0.0233488, Final residual = 0.000213929, No Iterations 15
time step continuity errors : sum local = 6.59934e-06, global = -1.02466e-06, cumulative = -2.77379e-05
smoothSolver:  Solving for omega, Initial residual = 8.27573e-05, Final residual = 4.90244e-06, No Iterations 3
smoothSolver:  Solving for k, Initial residual = 0.000320162, Final residual = 1.7612e-05, No Iterations 3
ExecutionTime = 0.99 s  ClockTime = 2 s

forceCoeffs forceCoeffs_object write:
    Cm    = -0.00237041
    Cd    = 0.0652098
    Cl    = 0.00980736
    Cl(f) = 0.00253327
    Cl(r) = 0.0072741

Time = 34

smoothSolver:  Solving for Ux, Initial residual = 0.00508789, Final residual = 0.000434514, No Iterations 12
smoothSolver:  Solving for Uy, Initial residual = 0.0195079, Final residual = 0.00188337, No Iterations 13
GAMG:  Solving for p, Initial residual = 0.0221327, Final residual = 0.000211349, No Iterations 14
time step continuity errors : sum local = 6.62311e-06, global = 1.47353e-06, cumulative = -2.62644e-05
smoothSolver:  Solving for omega, Initial residual = 7.90906e-05, Final residual = 4.71389e-06, No Iterations 3
smoothSolver:  Solving for k, Initial residual = 0.000304675, Final residual = 1.72261e-05, No Iterations 3
ExecutionTime = 1.02 s  ClockTime = 2 s

forceCoeffs forceCoeffs_object write:
    Cm    = -0.00170199
    Cd    = 0.0614891
    Cl    = 0.00986255
    Cl(f) = 0.00322928
    Cl(r) = 0.00663327

Time = 35

smoothSolver:  Solving for Ux, Initial residual = 0.00503212, Final residual = 0.000450237, No Iterations 11
smoothSolver:  Solving for Uy, Initial residual = 0.0166982, Final residual = 0.00166252, No Iterations 13
GAMG:  Solving for p, Initial residual = 0.0196218, Final residual = 0.000165412, No Iterations 13
time step continuity errors : sum local = 5.33778e-06, global = -1.16533e-06, cumulative = -2.74297e-05
smoothSolver:  Solving for omega, Initial residual = 7.64001e-05, Final residual = 4.70944e-06, No Iterations 3
smoothSolver:  Solving for k, Initial residual = 0.000286792, Final residual = 1.6111e-05, No Iterations 3
ExecutionTime = 1.04 s  ClockTime = 2 s

forceCoeffs forceCoeffs_object write:
    Cm    = -0.00119909
    Cd    = 0.0581376
    Cl    = 0.00990566
    Cl(f) = 0.00375374
    Cl(r) = 0.00615192

Time = 36

smoothSolver:  Solving for Ux, Initial residual = 0.00486872, Final residual = 0.000464908, No Iterations 10
smoothSolver:  Solving for Uy, Initial residual = 0.0151724, Final residual = 0.00150118, No Iterations 13
GAMG:  Solving for p, Initial residual = 0.0165164, Final residual = 0.000147638, No Iterations 13
time step continuity errors : sum local = 4.9449e-06, global = -1.1994e-06, cumulative = -2.86291e-05
smoothSolver:  Solving for omega, Initial residual = 7.29534e-05, Final residual = 4.52339e-06, No Iterations 3
smoothSolver:  Solving for k, Initial residual = 0.000263021, Final residual = 1.58149e-05, No Iterations 3
ExecutionTime = 1.07 s  ClockTime = 2 s

forceCoeffs forceCoeffs_object write:
    Cm    = -0.000805885
    Cd    = 0.0549969
    Cl    = 0.00994256
    Cl(f) = 0.00416539
    Cl(r) = 0.00577716

Time = 37

smoothSolver:  Solving for Ux, Initial residual = 0.00457454, Final residual = 0.000398903, No Iterations 10
smoothSolver:  Solving for Uy, Initial residual = 0.0142853, Final residual = 0.001375, No Iterations 13
GAMG:  Solving for p, Initial residual = 0.0144058, Final residual = 0.000133652, No Iterations 13
time step continuity errors : sum local = 4.63917e-06, global = -1.08996e-06, cumulative = -2.97191e-05
smoothSolver:  Solving for omega, Initial residual = 7.03359e-05, Final residual = 4.48477e-06, No Iterations 3
smoothSolver:  Solving for k, Initial residual = 0.000248327, Final residual = 1.50684e-05, No Iterations 3
ExecutionTime = 1.09 s  ClockTime = 2 s

forceCoeffs forceCoeffs_object write:
    Cm    = -0.000502783
    Cd    = 0.0520036
    Cl    = 0.00997981
    Cl(f) = 0.00448712
    Cl(r) = 0.00549269

Time = 38

smoothSolver:  Solving for Ux, Initial residual = 0.00418422, Final residual = 0.000405853, No Iterations 9
smoothSolver:  Solving for Uy, Initial residual = 0.0137454, Final residual = 0.00128031, No Iterations 13
GAMG:  Solving for p, Initial residual = 0.0131931, Final residual = 0.00011962, No Iterations 13
time step continuity errors : sum local = 4.25156e-06, global = -1.01509e-06, cumulative = -3.07342e-05
smoothSolver:  Solving for omega, Initial residual = 6.83298e-05, Final residual = 4.47354e-06, No Iterations 3
smoothSolver:  Solving for k, Initial residual = 0.00024297, Final residual = 1.5648e-05, No Iterations 3
ExecutionTime = 1.12 s  ClockTime = 2 s

forceCoeffs forceCoeffs_object write:
    Cm    = -0.000295473
    Cd    = 0.0492399
    Cl    = 0.0100193
    Cl(f) = 0.00471419
    Cl(r) = 0.00530514

Time = 39

smoothSolver:  Solving for Ux, Initial residual = 0.00377255, Final residual = 0.000358593, No Iterations 9
smoothSolver:  Solving for Uy, Initial residual = 0.0133036, Final residual = 0.00119576, No Iterations 13
GAMG:  Solving for p, Initial residual = 0.0120659, Final residual = 0.00010621, No Iterations 13
time step continuity errors : sum local = 3.84958e-06, global = -8.76733e-07, cumulative = -3.16109e-05
smoothSolver:  Solving for omega, Initial residual = 6.59574e-05, Final residual = 4.42786e-06, No Iterations 3
smoothSolver:  Solving for k, Initial residual = 0.000235744, Final residual = 1.5452e-05, No Iterations 3
ExecutionTime = 1.14 s  ClockTime = 2 s

forceCoeffs forceCoeffs_object write:
    Cm    = -0.00013228
    Cd    = 0.0465294
    Cl    = 0.0100578
    Cl(f) = 0.0048966
    Cl(r) = 0.00516116

Time = 40

smoothSolver:  Solving for Ux, Initial residual = 0.0033976, Final residual = 0.000291065, No Iterations 10
smoothSolver:  Solving for Uy, Initial residual = 0.0128375, Final residual = 0.001124, No Iterations 13
GAMG:  Solving for p, Initial residual = 0.0112329, Final residual = 0.000107191, No Iterations 12
time step continuity errors : sum local = 3.93287e-06, global = 7.34615e-07, cumulative = -3.08763e-05
smoothSolver:  Solving for omega, Initial residual = 6.41888e-05, Final residual = 4.4056e-06, No Iterations 3
smoothSolver:  Solving for k, Initial residual = 0.00023151, Final residual = 1.59387e-05, No Iterations 3
ExecutionTime = 1.17 s  ClockTime = 2 s

forceCoeffs forceCoeffs_object write:
    Cm    = -2.52182e-06
    Cd    = 0.043826
    Cl    = 0.0100918
    Cl(f) = 0.00504339
    Cl(r) = 0.00504843

Time = 41

smoothSolver:  Solving for Ux, Initial residual = 0.00311373, Final residual = 0.000302677, No Iterations 10
smoothSolver:  Solving for Uy, Initial residual = 0.012351, Final residual = 0.0012154, No Iterations 12
GAMG:  Solving for p, Initial residual = 0.0105594, Final residual = 9.33521e-05, No Iterations 11
time step continuity errors : sum local = 3.44054e-06, global = -5.98078e-07, cumulative = -3.14744e-05
smoothSolver:  Solving for omega, Initial residual = 6.2665e-05, Final residual = 4.2002e-06, No Iterations 3
smoothSolver:  Solving for k, Initial residual = 0.000223254, Final residual = 1.44809e-05, No Iterations 3
ExecutionTime = 1.19 s  ClockTime = 2 s

forceCoeffs forceCoeffs_object write:
    Cm    = 7.22817e-05
    Cd    = 0.0412846
    Cl    = 0.0101291
    Cl(f) = 0.00513682
    Cl(r) = 0.00499226

Time = 42

smoothSolver:  Solving for Ux, Initial residual = 0.00288079, Final residual = 0.000276448, No Iterations 11
smoothSolver:  Solving for Uy, Initial residual = 0.0119352, Final residual = 0.00116675, No Iterations 12
GAMG:  Solving for p, Initial residual = 0.00974869, Final residual = 9.04808e-05, No Iterations 12
time step continuity errors : sum local = 3.35028e-06, global = -6.41538e-07, cumulative = -3.21159e-05
smoothSolver:  Solving for omega, Initial residual = 6.05962e-05, Final residual = 4.21042e-06, No Iterations 3
smoothSolver:  Solving for k, Initial residual = 0.000214427, Final residual = 1.38517e-05, No Iterations 3
ExecutionTime = 1.21 s  ClockTime = 2 s


SIMPLE solution converged in 42 iterations

forceCoeffs forceCoeffs_object write:
    Cm    = 0.000113573
    Cd    = 0.0387812
    Cl    = 0.0101592
    Cl(f) = 0.00519315
    Cl(r) = 0.00496601

yPlus yPlus write:
    writing object yPlus
    patch suction_side y+ : min = 4.29638, max = 51.8535, average = 30.4673
    patch pressure_side y+ : min = 4.23799, max = 50.9642, average = 30.0478
    patch trailing_edge y+ : min = 97.9225, max = 98.4376, average = 98.1801

End

