/*---------------------------------------------------------------------------*\
  =========                 |
  \\      /  F ield         | OpenFOAM: The Open Source CFD Toolbox
   \\    /   O peration     | Website:  https://openfoam.org
    \\  /    A nd           | Version:  7
     \\/     M anipulation  |
\*---------------------------------------------------------------------------*/
Build  : 7-3bcbaf946ae9
Exec   : simpleFoam
Date   : Jul 19 2022
Time   : 10:26:13
Host   : "Lubuntu"
PID    : 257204
I/O    : uncollated
Case   : /home/ensm_student/Documents/CFD/Rechnerubung/Week07/Parameterstudien_mit_RANS/data/raw/AOA_17
nProcs : 1
sigFpe : Enabling floating point exception trapping (FOAM_SIGFPE).
fileModificationChecking : Monitoring run-time modified files using timeStampMaster (fileModificationSkew 10)
allowSystemOperations : Allowing user-supplied system call operations

// * * * * * * * * * * * * * * * * * * * * * * * * * * * * * * * * * * * * * //
Create time

Using #calcEntry at line 21 in file "/home/ensm_student/Documents/CFD/Rechnerubung/Week07/Parameterstudien_mit_RANS/data/raw/AOA_17/system/controlDict.functions"
Using #codeStream with "/home/ensm_student/Documents/CFD/Rechnerubung/Week07/Parameterstudien_mit_RANS/data/raw/AOA_17/dynamicCode/platforms/linux64GccDPInt32Opt/lib/libcodeStream_ce859747bcf0458aa3e1d6e73d0da7262378ee36.so"
Using #calcEntry at line 27 in file "/home/ensm_student/Documents/CFD/Rechnerubung/Week07/Parameterstudien_mit_RANS/data/raw/AOA_17/system/controlDict.functions"
Using #codeStream with "/home/ensm_student/Documents/CFD/Rechnerubung/Week07/Parameterstudien_mit_RANS/data/raw/AOA_17/dynamicCode/platforms/linux64GccDPInt32Opt/lib/libcodeStream_8c6314a787acd8194b0cf8679b363212e627d5db.so"
Using #calcEntry at line 32 in file "/home/ensm_student/Documents/CFD/Rechnerubung/Week07/Parameterstudien_mit_RANS/data/raw/AOA_17/system/controlDict.functions"
Using #codeStream with "/home/ensm_student/Documents/CFD/Rechnerubung/Week07/Parameterstudien_mit_RANS/data/raw/AOA_17/dynamicCode/platforms/linux64GccDPInt32Opt/lib/libcodeStream_844c9c693dfc906dd46778e4cc636c418aa6a075.so"
Using #calcEntry at line 34 in file "/home/ensm_student/Documents/CFD/Rechnerubung/Week07/Parameterstudien_mit_RANS/data/raw/AOA_17/system/controlDict.functions"
Using #codeStream with "/home/ensm_student/Documents/CFD/Rechnerubung/Week07/Parameterstudien_mit_RANS/data/raw/AOA_17/dynamicCode/platforms/linux64GccDPInt32Opt/lib/libcodeStream_8b9df0e8700141fc89ea5daab014598dae76de38.so"
Using #calcEntry at line 22 in file "/home/ensm_student/Documents/CFD/Rechnerubung/Week07/Parameterstudien_mit_RANS/data/raw/AOA_17/system/controlDict.functions"
Using #codeStream with "/home/ensm_student/Documents/CFD/Rechnerubung/Week07/Parameterstudien_mit_RANS/data/raw/AOA_17/dynamicCode/platforms/linux64GccDPInt32Opt/lib/libcodeStream_247c5db0b122d22956419d406bf9602503e11ef3.so"
Using #calcEntry at line 22 in file "/home/ensm_student/Documents/CFD/Rechnerubung/Week07/Parameterstudien_mit_RANS/data/raw/AOA_17/system/controlDict.functions"
Using #codeStream with "/home/ensm_student/Documents/CFD/Rechnerubung/Week07/Parameterstudien_mit_RANS/data/raw/AOA_17/dynamicCode/platforms/linux64GccDPInt32Opt/lib/libcodeStream_20902fb9205205dfbe689cc4a7ae07a8487d6cee.so"
Using #calcEntry at line 23 in file "/home/ensm_student/Documents/CFD/Rechnerubung/Week07/Parameterstudien_mit_RANS/data/raw/AOA_17/system/controlDict.functions"
Using #calcEntry at line 23 in file "/home/ensm_student/Documents/CFD/Rechnerubung/Week07/Parameterstudien_mit_RANS/data/raw/AOA_17/system/controlDict.functions"
Using #codeStream with "/home/ensm_student/Documents/CFD/Rechnerubung/Week07/Parameterstudien_mit_RANS/data/raw/AOA_17/dynamicCode/platforms/linux64GccDPInt32Opt/lib/libcodeStream_7bdbcd234c9a06e51c7483554620433c510616ba.so"
Create mesh for time = 0


SIMPLE: Convergence criteria found
        p: tolerance 0.01
        U: tolerance 0.02
        "(k|omega)": tolerance 0.001

Reading field p

Reading field U

Using #calcEntry at line 21 in file "/home/ensm_student/Documents/CFD/Rechnerubung/Week07/Parameterstudien_mit_RANS/data/raw/AOA_17/0/U"
Using #calcEntry at line 27 in file "/home/ensm_student/Documents/CFD/Rechnerubung/Week07/Parameterstudien_mit_RANS/data/raw/AOA_17/0/U"
Using #calcEntry at line 32 in file "/home/ensm_student/Documents/CFD/Rechnerubung/Week07/Parameterstudien_mit_RANS/data/raw/AOA_17/0/U"
Using #calcEntry at line 34 in file "/home/ensm_student/Documents/CFD/Rechnerubung/Week07/Parameterstudien_mit_RANS/data/raw/AOA_17/0/U"
Using #calcEntry at line 25 in file "/home/ensm_student/Documents/CFD/Rechnerubung/Week07/Parameterstudien_mit_RANS/data/raw/AOA_17/0/U"
Using #codeStream with "/home/ensm_student/Documents/CFD/Rechnerubung/Week07/Parameterstudien_mit_RANS/data/raw/AOA_17/dynamicCode/platforms/linux64GccDPInt32Opt/lib/libcodeStream_a6ae732e56cd0a42ec6b8953be1c657aeafe03e1.so"
Creating new library in "dynamicCode/_a6ae732e56cd0a42ec6b8953be1c657aeafe03e1/platforms/linux64GccDPInt32Opt/lib/libcodeStream_a6ae732e56cd0a42ec6b8953be1c657aeafe03e1.so"
Invoking "wmake -s libso /home/ensm_student/Documents/CFD/Rechnerubung/Week07/Parameterstudien_mit_RANS/data/raw/AOA_17/dynamicCode/_a6ae732e56cd0a42ec6b8953be1c657aeafe03e1"
wmake libso /home/ensm_student/Documents/CFD/Rechnerubung/Week07/Parameterstudien_mit_RANS/data/raw/AOA_17/dynamicCode/_a6ae732e56cd0a42ec6b8953be1c657aeafe03e1
    wmkdep: codeStreamTemplate.C
    Ctoo: codeStreamTemplate.C
    ld: /home/ensm_student/Documents/CFD/Rechnerubung/Week07/Parameterstudien_mit_RANS/data/raw/AOA_17/dynamicCode/_a6ae732e56cd0a42ec6b8953be1c657aeafe03e1/../platforms/linux64GccDPInt32Opt/lib/libcodeStream_a6ae732e56cd0a42ec6b8953be1c657aeafe03e1.so
Using #calcEntry at line 25 in file "/home/ensm_student/Documents/CFD/Rechnerubung/Week07/Parameterstudien_mit_RANS/data/raw/AOA_17/0/U"
Using #codeStream with "/home/ensm_student/Documents/CFD/Rechnerubung/Week07/Parameterstudien_mit_RANS/data/raw/AOA_17/dynamicCode/platforms/linux64GccDPInt32Opt/lib/libcodeStream_5907a83e24fbbff1270263048d52baa4d7c980a2.so"
Creating new library in "dynamicCode/_5907a83e24fbbff1270263048d52baa4d7c980a2/platforms/linux64GccDPInt32Opt/lib/libcodeStream_5907a83e24fbbff1270263048d52baa4d7c980a2.so"
Invoking "wmake -s libso /home/ensm_student/Documents/CFD/Rechnerubung/Week07/Parameterstudien_mit_RANS/data/raw/AOA_17/dynamicCode/_5907a83e24fbbff1270263048d52baa4d7c980a2"
wmake libso /home/ensm_student/Documents/CFD/Rechnerubung/Week07/Parameterstudien_mit_RANS/data/raw/AOA_17/dynamicCode/_5907a83e24fbbff1270263048d52baa4d7c980a2
    wmkdep: codeStreamTemplate.C
    Ctoo: codeStreamTemplate.C
    ld: /home/ensm_student/Documents/CFD/Rechnerubung/Week07/Parameterstudien_mit_RANS/data/raw/AOA_17/dynamicCode/_5907a83e24fbbff1270263048d52baa4d7c980a2/../platforms/linux64GccDPInt32Opt/lib/libcodeStream_5907a83e24fbbff1270263048d52baa4d7c980a2.so
Reading/calculating face flux field phi

Selecting incompressible transport model Newtonian
Selecting turbulence model type RAS
Selecting RAS turbulence model kOmegaSST
Using #calcEntry at line 21 in file "/home/ensm_student/Documents/CFD/Rechnerubung/Week07/Parameterstudien_mit_RANS/data/raw/AOA_17/0/nut"
Using #calcEntry at line 27 in file "/home/ensm_student/Documents/CFD/Rechnerubung/Week07/Parameterstudien_mit_RANS/data/raw/AOA_17/0/nut"
Using #calcEntry at line 32 in file "/home/ensm_student/Documents/CFD/Rechnerubung/Week07/Parameterstudien_mit_RANS/data/raw/AOA_17/0/nut"
Using #calcEntry at line 34 in file "/home/ensm_student/Documents/CFD/Rechnerubung/Week07/Parameterstudien_mit_RANS/data/raw/AOA_17/0/nut"
Selecting patchDistMethod meshWave
Using #calcEntry at line 21 in file "/home/ensm_student/Documents/CFD/Rechnerubung/Week07/Parameterstudien_mit_RANS/data/raw/AOA_17/0/k"
Using #calcEntry at line 27 in file "/home/ensm_student/Documents/CFD/Rechnerubung/Week07/Parameterstudien_mit_RANS/data/raw/AOA_17/0/k"
Using #calcEntry at line 32 in file "/home/ensm_student/Documents/CFD/Rechnerubung/Week07/Parameterstudien_mit_RANS/data/raw/AOA_17/0/k"
Using #calcEntry at line 34 in file "/home/ensm_student/Documents/CFD/Rechnerubung/Week07/Parameterstudien_mit_RANS/data/raw/AOA_17/0/k"
Using #calcEntry at line 21 in file "/home/ensm_student/Documents/CFD/Rechnerubung/Week07/Parameterstudien_mit_RANS/data/raw/AOA_17/0/omega"
Using #calcEntry at line 27 in file "/home/ensm_student/Documents/CFD/Rechnerubung/Week07/Parameterstudien_mit_RANS/data/raw/AOA_17/0/omega"
Using #calcEntry at line 32 in file "/home/ensm_student/Documents/CFD/Rechnerubung/Week07/Parameterstudien_mit_RANS/data/raw/AOA_17/0/omega"
Using #calcEntry at line 34 in file "/home/ensm_student/Documents/CFD/Rechnerubung/Week07/Parameterstudien_mit_RANS/data/raw/AOA_17/0/omega"
RAS
{
    RASModel        kOmegaSST;
    turbulence      on;
    printCoeffs     on;
    alphaK1         0.85;
    alphaK2         1;
    alphaOmega1     0.5;
    alphaOmega2     0.856;
    gamma1          0.555556;
    gamma2          0.44;
    beta1           0.075;
    beta2           0.0828;
    betaStar        0.09;
    a1              0.31;
    b1              1;
    c1              10;
    F3              false;
}

No MRF models present

No finite volume options present

Starting time loop

--> FOAM Warning : 
    From function bool Foam::functionObjectList::read()
    in file db/functionObjects/functionObjectList/functionObjectList.C at line 682
    Reading "/home/ensm_student/Documents/CFD/Rechnerubung/Week07/Parameterstudien_mit_RANS/data/raw/AOA_17/system/controlDict" from line 18 to line 17
    Entry mag_U_infty is not a dictionary
--> FOAM Warning : 
    From function bool Foam::functionObjectList::read()
    in file db/functionObjects/functionObjectList/functionObjectList.C at line 682
    Reading "/home/ensm_student/Documents/CFD/Rechnerubung/Week07/Parameterstudien_mit_RANS/data/raw/AOA_17/system/controlDict" from line 18 to line 17
    Entry alpha_DEG is not a dictionary
--> FOAM Warning : 
    From function bool Foam::functionObjectList::read()
    in file db/functionObjects/functionObjectList/functionObjectList.C at line 682
    Reading "/home/ensm_student/Documents/CFD/Rechnerubung/Week07/Parameterstudien_mit_RANS/data/raw/AOA_17/system/controlDict" from line 18 to line 17
    Entry alpha_RAD is not a dictionary
--> FOAM Warning : 
    From function bool Foam::functionObjectList::read()
    in file db/functionObjects/functionObjectList/functionObjectList.C at line 682
    Reading "/home/ensm_student/Documents/CFD/Rechnerubung/Week07/Parameterstudien_mit_RANS/data/raw/AOA_17/system/controlDict" from line 18 to line 17
    Entry intensity is not a dictionary
--> FOAM Warning : 
    From function bool Foam::functionObjectList::read()
    in file db/functionObjects/functionObjectList/functionObjectList.C at line 682
    Reading "/home/ensm_student/Documents/CFD/Rechnerubung/Week07/Parameterstudien_mit_RANS/data/raw/AOA_17/system/controlDict" from line 18 to line 17
    Entry k_inlet is not a dictionary
--> FOAM Warning : 
    From function bool Foam::functionObjectList::read()
    in file db/functionObjects/functionObjectList/functionObjectList.C at line 682
    Reading "/home/ensm_student/Documents/CFD/Rechnerubung/Week07/Parameterstudien_mit_RANS/data/raw/AOA_17/system/controlDict" from line 18 to line 17
    Entry beta_1 is not a dictionary
--> FOAM Warning : 
    From function bool Foam::functionObjectList::read()
    in file db/functionObjects/functionObjectList/functionObjectList.C at line 682
    Reading "/home/ensm_student/Documents/CFD/Rechnerubung/Week07/Parameterstudien_mit_RANS/data/raw/AOA_17/system/controlDict" from line 18 to line 17
    Entry nu is not a dictionary
--> FOAM Warning : 
    From function bool Foam::functionObjectList::read()
    in file db/functionObjects/functionObjectList/functionObjectList.C at line 682
    Reading "/home/ensm_student/Documents/CFD/Rechnerubung/Week07/Parameterstudien_mit_RANS/data/raw/AOA_17/system/controlDict" from line 18 to line 17
    Entry del_y_1 is not a dictionary
--> FOAM Warning : 
    From function bool Foam::functionObjectList::read()
    in file db/functionObjects/functionObjectList/functionObjectList.C at line 682
    Reading "/home/ensm_student/Documents/CFD/Rechnerubung/Week07/Parameterstudien_mit_RANS/data/raw/AOA_17/system/controlDict" from line 18 to line 17
    Entry omega is not a dictionary
--> FOAM Warning : 
    From function bool Foam::functionObjectList::read()
    in file db/functionObjects/functionObjectList/functionObjectList.C at line 682
    Reading "/home/ensm_student/Documents/CFD/Rechnerubung/Week07/Parameterstudien_mit_RANS/data/raw/AOA_17/system/controlDict" from line 18 to line 17
    Entry nut is not a dictionary
--> FOAM Warning : 
    From function bool Foam::functionObjectList::read()
    in file db/functionObjects/functionObjectList/functionObjectList.C at line 682
    Reading "/home/ensm_student/Documents/CFD/Rechnerubung/Week07/Parameterstudien_mit_RANS/data/raw/AOA_17/system/controlDict" from line 18 to line 17
    Entry x_ is not a dictionary
--> FOAM Warning : 
    From function bool Foam::functionObjectList::read()
    in file db/functionObjects/functionObjectList/functionObjectList.C at line 682
    Reading "/home/ensm_student/Documents/CFD/Rechnerubung/Week07/Parameterstudien_mit_RANS/data/raw/AOA_17/system/controlDict" from line 18 to line 17
    Entry y_ is not a dictionary
--> FOAM Warning : 
    From function void Foam::timeControl::read(const Foam::dictionary&)
    in file db/functionObjects/timeControl/timeControl.C at line 89
    Reading "/home/ensm_student/Documents/CFD/Rechnerubung/Week07/Parameterstudien_mit_RANS/data/raw/AOA_17/system/controlDict.functions.forceCoeffs_object" from line 28 to line 48
    Using deprecated 'outputControl'
    Please use 'writeControl' with 'writeInterval'
forces forceCoeffs_object:
    Not including porosity effects
forceCoeffs forceCoeffs_object:
    Not including porosity effects
--> FOAM Warning : 
    From function void Foam::timeControl::read(const Foam::dictionary&)
    in file db/functionObjects/timeControl/timeControl.C at line 89
    Reading "/home/ensm_student/Documents/CFD/Rechnerubung/Week07/Parameterstudien_mit_RANS/data/raw/AOA_17/system/controlDict.functions.residuals" from line 19 to line 31
    Using deprecated 'outputControl'
    Please use 'writeControl' with 'writeInterval'
Time = 1

smoothSolver:  Solving for Ux, Initial residual = 1, Final residual = 0.0758247, No Iterations 29
smoothSolver:  Solving for Uy, Initial residual = 1, Final residual = 0.0758639, No Iterations 29
GAMG:  Solving for p, Initial residual = 1, Final residual = 0.00877195, No Iterations 15
time step continuity errors : sum local = 0.000158513, global = 4.81507e-05, cumulative = 4.81507e-05
smoothSolver:  Solving for omega, Initial residual = 0.00153121, Final residual = 0.000150334, No Iterations 3
bounding omega, min: -16.1029 max: 1873.49 average: 21.955
smoothSolver:  Solving for k, Initial residual = 1, Final residual = 0.0498781, No Iterations 3
ExecutionTime = 0.11 s  ClockTime = 2 s

forceCoeffs forceCoeffs_object write:
    Cm    = -0.17719
    Cd    = 1.2775
    Cl    = -0.212655
    Cl(f) = -0.283517
    Cl(r) = 0.0708627

Time = 2

smoothSolver:  Solving for Ux, Initial residual = 0.0138499, Final residual = 0.00136908, No Iterations 14
smoothSolver:  Solving for Uy, Initial residual = 0.122234, Final residual = 0.0111946, No Iterations 14
GAMG:  Solving for p, Initial residual = 0.0990175, Final residual = 0.000819081, No Iterations 17
time step continuity errors : sum local = 0.000243254, global = 0.000108831, cumulative = 0.000156982
smoothSolver:  Solving for omega, Initial residual = 0.00344946, Final residual = 0.000234801, No Iterations 3
smoothSolver:  Solving for k, Initial residual = 0.240169, Final residual = 0.0148694, No Iterations 3
ExecutionTime = 0.13 s  ClockTime = 2 s

forceCoeffs forceCoeffs_object write:
    Cm    = -0.251161
    Cd    = 1.19881
    Cl    = -0.0922731
    Cl(f) = -0.297298
    Cl(r) = 0.205025

Time = 3

smoothSolver:  Solving for Ux, Initial residual = 0.0107842, Final residual = 0.00105212, No Iterations 12
smoothSolver:  Solving for Uy, Initial residual = 0.0515637, Final residual = 0.00455845, No Iterations 11
GAMG:  Solving for p, Initial residual = 0.0630574, Final residual = 0.00055301, No Iterations 14
time step continuity errors : sum local = 0.00022982, global = 0.000141296, cumulative = 0.000298277
smoothSolver:  Solving for omega, Initial residual = 0.00479447, Final residual = 0.000406908, No Iterations 3
bounding omega, min: -2.70302 max: 18677.8 average: 55.5455
smoothSolver:  Solving for k, Initial residual = 0.0812844, Final residual = 0.0051283, No Iterations 3
ExecutionTime = 0.16 s  ClockTime = 2 s

forceCoeffs forceCoeffs_object write:
    Cm    = -0.264117
    Cd    = 1.39338
    Cl    = -0.183761
    Cl(f) = -0.355998
    Cl(r) = 0.172237

Time = 4

smoothSolver:  Solving for Ux, Initial residual = 0.00878153, Final residual = 0.000773521, No Iterations 12
smoothSolver:  Solving for Uy, Initial residual = 0.0301557, Final residual = 0.00296787, No Iterations 10
GAMG:  Solving for p, Initial residual = 0.0725244, Final residual = 0.000582629, No Iterations 17
time step continuity errors : sum local = 0.000141047, global = -5.56415e-05, cumulative = 0.000242636
smoothSolver:  Solving for omega, Initial residual = 0.00217016, Final residual = 0.000184167, No Iterations 3
smoothSolver:  Solving for k, Initial residual = 0.0312162, Final residual = 0.00222744, No Iterations 3
ExecutionTime = 0.19 s  ClockTime = 2 s

forceCoeffs forceCoeffs_object write:
    Cm    = -0.217885
    Cd    = 1.73123
    Cl    = -0.331801
    Cl(f) = -0.383785
    Cl(r) = 0.0519844

Time = 5

smoothSolver:  Solving for Ux, Initial residual = 0.00784459, Final residual = 0.000701726, No Iterations 11
smoothSolver:  Solving for Uy, Initial residual = 0.0222163, Final residual = 0.00207317, No Iterations 10
GAMG:  Solving for p, Initial residual = 0.0942577, Final residual = 0.000726146, No Iterations 14
time step continuity errors : sum local = 0.000139025, global = -5.33382e-05, cumulative = 0.000189298
smoothSolver:  Solving for omega, Initial residual = 0.00137991, Final residual = 0.000137928, No Iterations 3
smoothSolver:  Solving for k, Initial residual = 0.0112971, Final residual = 0.000756899, No Iterations 3
ExecutionTime = 0.22 s  ClockTime = 2 s

forceCoeffs forceCoeffs_object write:
    Cm    = -0.121151
    Cd    = 1.86506
    Cl    = -0.436659
    Cl(f) = -0.339481
    Cl(r) = -0.0971785

Time = 6

smoothSolver:  Solving for Ux, Initial residual = 0.00722249, Final residual = 0.000688924, No Iterations 10
smoothSolver:  Solving for Uy, Initial residual = 0.0150654, Final residual = 0.00131982, No Iterations 11
GAMG:  Solving for p, Initial residual = 0.104911, Final residual = 0.000854112, No Iterations 14
time step continuity errors : sum local = 0.000118359, global = -4.20118e-05, cumulative = 0.000147286
smoothSolver:  Solving for omega, Initial residual = 0.0010253, Final residual = 8.42471e-05, No Iterations 3
smoothSolver:  Solving for k, Initial residual = 0.00447823, Final residual = 0.00031127, No Iterations 3
ExecutionTime = 0.24 s  ClockTime = 2 s

forceCoeffs forceCoeffs_object write:
    Cm    = -0.0561358
    Cd    = 1.99467
    Cl    = -0.596303
    Cl(f) = -0.354287
    Cl(r) = -0.242016

Time = 7

smoothSolver:  Solving for Ux, Initial residual = 0.00578503, Final residual = 0.000571292, No Iterations 10
smoothSolver:  Solving for Uy, Initial residual = 0.0104948, Final residual = 0.00101457, No Iterations 11
GAMG:  Solving for p, Initial residual = 0.0748409, Final residual = 0.000675796, No Iterations 13
time step continuity errors : sum local = 0.00012546, global = 6.67202e-05, cumulative = 0.000214006
smoothSolver:  Solving for omega, Initial residual = 0.000822279, Final residual = 5.9783e-05, No Iterations 3
bounding omega, min: -141.41 max: 17862.8 average: 113.142
smoothSolver:  Solving for k, Initial residual = 0.0037569, Final residual = 0.000236032, No Iterations 3
ExecutionTime = 0.27 s  ClockTime = 2 s

forceCoeffs forceCoeffs_object write:
    Cm    = -0.00818368
    Cd    = 1.96922
    Cl    = -0.736167
    Cl(f) = -0.376267
    Cl(r) = -0.3599

Time = 8

smoothSolver:  Solving for Ux, Initial residual = 0.00507726, Final residual = 0.000477372, No Iterations 10
smoothSolver:  Solving for Uy, Initial residual = 0.00851776, Final residual = 0.000736593, No Iterations 12
GAMG:  Solving for p, Initial residual = 0.0505964, Final residual = 0.000444411, No Iterations 14
time step continuity errors : sum local = 0.000121198, global = -5.37865e-05, cumulative = 0.00016022
smoothSolver:  Solving for omega, Initial residual = 0.00065452, Final residual = 5.25626e-05, No Iterations 3
bounding omega, min: -97.3132 max: 16039 average: 125.086
smoothSolver:  Solving for k, Initial residual = 0.00336843, Final residual = 0.000219516, No Iterations 3
ExecutionTime = 0.29 s  ClockTime = 2 s

forceCoeffs forceCoeffs_object write:
    Cm    = 0.0428596
    Cd    = 1.86949
    Cl    = -0.818671
    Cl(f) = -0.366476
    Cl(r) = -0.452195

Time = 9

smoothSolver:  Solving for Ux, Initial residual = 0.00468077, Final residual = 0.000416699, No Iterations 10
smoothSolver:  Solving for Uy, Initial residual = 0.00725457, Final residual = 0.000709213, No Iterations 11
GAMG:  Solving for p, Initial residual = 0.0361826, Final residual = 0.00032247, No Iterations 13
time step continuity errors : sum local = 0.000115327, global = 6.70587e-05, cumulative = 0.000227278
smoothSolver:  Solving for omega, Initial residual = 0.00055249, Final residual = 3.41319e-05, No Iterations 3
smoothSolver:  Solving for k, Initial residual = 0.00284309, Final residual = 0.00018612, No Iterations 3
ExecutionTime = 0.32 s  ClockTime = 2 s

forceCoeffs forceCoeffs_object write:
    Cm    = 0.0822085
    Cd    = 1.69764
    Cl    = -0.827033
    Cl(f) = -0.331308
    Cl(r) = -0.495725

Time = 10

smoothSolver:  Solving for Ux, Initial residual = 0.00451252, Final residual = 0.000409387, No Iterations 10
smoothSolver:  Solving for Uy, Initial residual = 0.00602617, Final residual = 0.000589533, No Iterations 11
GAMG:  Solving for p, Initial residual = 0.0298522, Final residual = 0.000251857, No Iterations 13
time step continuity errors : sum local = 0.000109245, global = 5.60727e-05, cumulative = 0.000283351
smoothSolver:  Solving for omega, Initial residual = 0.000421857, Final residual = 2.26806e-05, No Iterations 3
smoothSolver:  Solving for k, Initial residual = 0.00286066, Final residual = 0.000161633, No Iterations 3
ExecutionTime = 0.34 s  ClockTime = 2 s

forceCoeffs forceCoeffs_object write:
    Cm    = 0.084615
    Cd    = 1.61316
    Cl    = -0.816626
    Cl(f) = -0.323698
    Cl(r) = -0.492928

Time = 11

smoothSolver:  Solving for Ux, Initial residual = 0.00440164, Final residual = 0.000417342, No Iterations 10
smoothSolver:  Solving for Uy, Initial residual = 0.00542103, Final residual = 0.000541027, No Iterations 11
GAMG:  Solving for p, Initial residual = 0.0295589, Final residual = 0.000243421, No Iterations 11
time step continuity errors : sum local = 0.000118886, global = 4.65053e-05, cumulative = 0.000329856
smoothSolver:  Solving for omega, Initial residual = 0.000458841, Final residual = 1.98597e-05, No Iterations 3
smoothSolver:  Solving for k, Initial residual = 0.00177446, Final residual = 7.63309e-05, No Iterations 3
ExecutionTime = 0.37 s  ClockTime = 2 s

forceCoeffs forceCoeffs_object write:
    Cm    = 0.0751016
    Cd    = 1.56301
    Cl    = -0.795712
    Cl(f) = -0.322755
    Cl(r) = -0.472958

Time = 12

smoothSolver:  Solving for Ux, Initial residual = 0.0042117, Final residual = 0.000416076, No Iterations 10
smoothSolver:  Solving for Uy, Initial residual = 0.00521294, Final residual = 0.000455938, No Iterations 12
GAMG:  Solving for p, Initial residual = 0.0262082, Final residual = 0.000252378, No Iterations 9
time step continuity errors : sum local = 0.000131948, global = 6.47235e-05, cumulative = 0.00039458
smoothSolver:  Solving for omega, Initial residual = 0.000585442, Final residual = 4.35285e-05, No Iterations 2
bounding omega, min: -4735.35 max: 52393.8 average: 179.605
smoothSolver:  Solving for k, Initial residual = 0.00125749, Final residual = 5.34904e-05, No Iterations 3
ExecutionTime = 0.39 s  ClockTime = 2 s

forceCoeffs forceCoeffs_object write:
    Cm    = 0.0526859
    Cd    = 1.53768
    Cl    = -0.768254
    Cl(f) = -0.331441
    Cl(r) = -0.436813

Time = 13

smoothSolver:  Solving for Ux, Initial residual = 0.00414867, Final residual = 0.000412203, No Iterations 10
smoothSolver:  Solving for Uy, Initial residual = 0.00501494, Final residual = 0.000493437, No Iterations 11
GAMG:  Solving for p, Initial residual = 0.0243794, Final residual = 0.000238903, No Iterations 10
time step continuity errors : sum local = 0.000130011, global = -5.13592e-05, cumulative = 0.000343221
smoothSolver:  Solving for omega, Initial residual = 0.000967347, Final residual = 4.35498e-05, No Iterations 2
smoothSolver:  Solving for k, Initial residual = 0.00119098, Final residual = 0.000114823, No Iterations 2
ExecutionTime = 0.41 s  ClockTime = 2 s

forceCoeffs forceCoeffs_object write:
    Cm    = 0.0252587
    Cd    = 1.55647
    Cl    = -0.742831
    Cl(f) = -0.346157
    Cl(r) = -0.396674

Time = 14

smoothSolver:  Solving for Ux, Initial residual = 0.00412947, Final residual = 0.000361784, No Iterations 11
smoothSolver:  Solving for Uy, Initial residual = 0.00497273, Final residual = 0.00046845, No Iterations 11
GAMG:  Solving for p, Initial residual = 0.01776, Final residual = 0.000165631, No Iterations 11
time step continuity errors : sum local = 8.74586e-05, global = 3.4039e-05, cumulative = 0.00037726
smoothSolver:  Solving for omega, Initial residual = 0.000600545, Final residual = 3.44046e-05, No Iterations 2
smoothSolver:  Solving for k, Initial residual = 0.00113027, Final residual = 0.000109623, No Iterations 2
ExecutionTime = 0.43 s  ClockTime = 2 s

forceCoeffs forceCoeffs_object write:
    Cm    = -0.00517588
    Cd    = 1.60414
    Cl    = -0.729408
    Cl(f) = -0.36988
    Cl(r) = -0.359528

Time = 15

smoothSolver:  Solving for Ux, Initial residual = 0.00404557, Final residual = 0.000356289, No Iterations 11
smoothSolver:  Solving for Uy, Initial residual = 0.00485999, Final residual = 0.000438867, No Iterations 11
GAMG:  Solving for p, Initial residual = 0.017546, Final residual = 0.000149361, No Iterations 12
time step continuity errors : sum local = 7.9826e-05, global = 2.5536e-05, cumulative = 0.000402795
smoothSolver:  Solving for omega, Initial residual = 0.000299878, Final residual = 1.5779e-05, No Iterations 3
smoothSolver:  Solving for k, Initial residual = 0.00106699, Final residual = 5.28467e-05, No Iterations 3
ExecutionTime = 0.46 s  ClockTime = 2 s

forceCoeffs forceCoeffs_object write:
    Cm    = -0.0282197
    Cd    = 1.67864
    Cl    = -0.718461
    Cl(f) = -0.38745
    Cl(r) = -0.331011

Time = 16

smoothSolver:  Solving for Ux, Initial residual = 0.00398013, Final residual = 0.000350636, No Iterations 11
smoothSolver:  Solving for Uy, Initial residual = 0.00482331, Final residual = 0.000467735, No Iterations 10
GAMG:  Solving for p, Initial residual = 0.0165071, Final residual = 0.000125502, No Iterations 14
time step continuity errors : sum local = 6.73222e-05, global = 2.81929e-05, cumulative = 0.000430988
smoothSolver:  Solving for omega, Initial residual = 0.000270635, Final residual = 1.52239e-05, No Iterations 3
smoothSolver:  Solving for k, Initial residual = 0.00100412, Final residual = 5.25309e-05, No Iterations 3
ExecutionTime = 0.48 s  ClockTime = 2 s

forceCoeffs forceCoeffs_object write:
    Cm    = -0.0506411
    Cd    = 1.75993
    Cl    = -0.708275
    Cl(f) = -0.404778
    Cl(r) = -0.303496

Time = 17

smoothSolver:  Solving for Ux, Initial residual = 0.0039431, Final residual = 0.000347877, No Iterations 11
smoothSolver:  Solving for Uy, Initial residual = 0.00491512, Final residual = 0.000443049, No Iterations 10
GAMG:  Solving for p, Initial residual = 0.0149484, Final residual = 0.000135769, No Iterations 14
time step continuity errors : sum local = 7.25726e-05, global = 3.10026e-05, cumulative = 0.000461991
smoothSolver:  Solving for omega, Initial residual = 0.000291837, Final residual = 1.35595e-05, No Iterations 3
smoothSolver:  Solving for k, Initial residual = 0.00104927, Final residual = 4.90313e-05, No Iterations 3
ExecutionTime = 0.51 s  ClockTime = 2 s

forceCoeffs forceCoeffs_object write:
    Cm    = -0.0713429
    Cd    = 1.83381
    Cl    = -0.697672
    Cl(f) = -0.420179
    Cl(r) = -0.277493

Time = 18

smoothSolver:  Solving for Ux, Initial residual = 0.00388381, Final residual = 0.000387937, No Iterations 10
smoothSolver:  Solving for Uy, Initial residual = 0.0049619, Final residual = 0.000485688, No Iterations 9
GAMG:  Solving for p, Initial residual = 0.0137906, Final residual = 0.000111082, No Iterations 16
time step continuity errors : sum local = 5.97993e-05, global = 2.44975e-05, cumulative = 0.000486488
smoothSolver:  Solving for omega, Initial residual = 0.000336646, Final residual = 3.17028e-05, No Iterations 2
smoothSolver:  Solving for k, Initial residual = 0.000920071, Final residual = 3.84245e-05, No Iterations 3
ExecutionTime = 0.54 s  ClockTime = 2 s

forceCoeffs forceCoeffs_object write:
    Cm    = -0.0953823
    Cd    = 1.91049
    Cl    = -0.686913
    Cl(f) = -0.438839
    Cl(r) = -0.248074

Time = 19

smoothSolver:  Solving for Ux, Initial residual = 0.00382965, Final residual = 0.000380248, No Iterations 10
smoothSolver:  Solving for Uy, Initial residual = 0.00507058, Final residual = 0.000474305, No Iterations 9
GAMG:  Solving for p, Initial residual = 0.0126757, Final residual = 0.000119906, No Iterations 16
time step continuity errors : sum local = 6.56363e-05, global = 2.90536e-05, cumulative = 0.000515542
smoothSolver:  Solving for omega, Initial residual = 0.000372702, Final residual = 3.16948e-05, No Iterations 2
smoothSolver:  Solving for k, Initial residual = 0.000862342, Final residual = 8.11056e-05, No Iterations 2
ExecutionTime = 0.57 s  ClockTime = 2 s

forceCoeffs forceCoeffs_object write:
    Cm    = -0.124054
    Cd    = 1.96517
    Cl    = -0.667977
    Cl(f) = -0.458043
    Cl(r) = -0.209934

Time = 20

smoothSolver:  Solving for Ux, Initial residual = 0.00377638, Final residual = 0.00037115, No Iterations 10
smoothSolver:  Solving for Uy, Initial residual = 0.00522543, Final residual = 0.000474441, No Iterations 9
GAMG:  Solving for p, Initial residual = 0.0122367, Final residual = 0.000122232, No Iterations 16
time step continuity errors : sum local = 6.71417e-05, global = 3.09049e-05, cumulative = 0.000546447
smoothSolver:  Solving for omega, Initial residual = 0.000363617, Final residual = 2.99954e-05, No Iterations 2
smoothSolver:  Solving for k, Initial residual = 0.000789293, Final residual = 7.24617e-05, No Iterations 2
ExecutionTime = 0.59 s  ClockTime = 2 s

forceCoeffs forceCoeffs_object write:
    Cm    = -0.158688
    Cd    = 2.00305
    Cl    = -0.643953
    Cl(f) = -0.480665
    Cl(r) = -0.163289

Time = 21

smoothSolver:  Solving for Ux, Initial residual = 0.00378477, Final residual = 0.000364126, No Iterations 10
smoothSolver:  Solving for Uy, Initial residual = 0.00545403, Final residual = 0.000479637, No Iterations 9
GAMG:  Solving for p, Initial residual = 0.0123927, Final residual = 0.000117319, No Iterations 16
time step continuity errors : sum local = 6.50209e-05, global = 3.15349e-05, cumulative = 0.000577982
smoothSolver:  Solving for omega, Initial residual = 0.000364419, Final residual = 3.02129e-05, No Iterations 2
smoothSolver:  Solving for k, Initial residual = 0.000863461, Final residual = 7.56824e-05, No Iterations 2
ExecutionTime = 0.62 s  ClockTime = 2 s

forceCoeffs forceCoeffs_object write:
    Cm    = -0.197768
    Cd    = 2.02111
    Cl    = -0.614792
    Cl(f) = -0.505163
    Cl(r) = -0.109628

Time = 22

smoothSolver:  Solving for Ux, Initial residual = 0.00384434, Final residual = 0.000358547, No Iterations 10
smoothSolver:  Solving for Uy, Initial residual = 0.00581242, Final residual = 0.000578087, No Iterations 8
GAMG:  Solving for p, Initial residual = 0.0126043, Final residual = 0.000120267, No Iterations 16
time step continuity errors : sum local = 6.69889e-05, global = 3.31301e-05, cumulative = 0.000611112
smoothSolver:  Solving for omega, Initial residual = 0.000417349, Final residual = 3.41415e-05, No Iterations 2
smoothSolver:  Solving for k, Initial residual = 0.000933336, Final residual = 8.12453e-05, No Iterations 2
bounding k, min: -0.00657486 max: 11.1217 average: 0.0625625
ExecutionTime = 0.65 s  ClockTime = 2 s

forceCoeffs forceCoeffs_object write:
    Cm    = -0.240778
    Cd    = 2.01676
    Cl    = -0.577993
    Cl(f) = -0.529775
    Cl(r) = -0.0482183

Time = 23

smoothSolver:  Solving for Ux, Initial residual = 0.00387866, Final residual = 0.000358563, No Iterations 10
smoothSolver:  Solving for Uy, Initial residual = 0.00623064, Final residual = 0.000616223, No Iterations 8
GAMG:  Solving for p, Initial residual = 0.0129016, Final residual = 0.00011651, No Iterations 16
time step continuity errors : sum local = 6.5452e-05, global = 3.25229e-05, cumulative = 0.000643635
smoothSolver:  Solving for omega, Initial residual = 0.000432486, Final residual = 3.46334e-05, No Iterations 2
smoothSolver:  Solving for k, Initial residual = 0.000944839, Final residual = 8.40231e-05, No Iterations 2
bounding k, min: -0.0148686 max: 9.59157 average: 0.0648573
ExecutionTime = 0.67 s  ClockTime = 2 s

forceCoeffs forceCoeffs_object write:
    Cm    = -0.285003
    Cd    = 2.0009
    Cl    = -0.542309
    Cl(f) = -0.556158
    Cl(r) = 0.013849

Time = 24

smoothSolver:  Solving for Ux, Initial residual = 0.00398075, Final residual = 0.000367329, No Iterations 10
smoothSolver:  Solving for Uy, Initial residual = 0.0068634, Final residual = 0.000674531, No Iterations 8
GAMG:  Solving for p, Initial residual = 0.0129597, Final residual = 0.000123762, No Iterations 16
time step continuity errors : sum local = 7.09103e-05, global = 3.47271e-05, cumulative = 0.000678362
smoothSolver:  Solving for omega, Initial residual = 0.000425881, Final residual = 3.84624e-05, No Iterations 2
smoothSolver:  Solving for k, Initial residual = 0.000951372, Final residual = 8.99433e-05, No Iterations 2
ExecutionTime = 0.7 s  ClockTime = 2 s

forceCoeffs forceCoeffs_object write:
    Cm    = -0.326424
    Cd    = 1.97717
    Cl    = -0.507451
    Cl(f) = -0.580149
    Cl(r) = 0.0726981

Time = 25

smoothSolver:  Solving for Ux, Initial residual = 0.00407071, Final residual = 0.00038222, No Iterations 10
smoothSolver:  Solving for Uy, Initial residual = 0.00755834, Final residual = 0.000647653, No Iterations 9
GAMG:  Solving for p, Initial residual = 0.0124047, Final residual = 9.69721e-05, No Iterations 18
time step continuity errors : sum local = 5.66064e-05, global = 2.24671e-05, cumulative = 0.000700829
smoothSolver:  Solving for omega, Initial residual = 0.000407033, Final residual = 3.58318e-05, No Iterations 2
smoothSolver:  Solving for k, Initial residual = 0.000938036, Final residual = 8.73754e-05, No Iterations 2
ExecutionTime = 0.73 s  ClockTime = 2 s

forceCoeffs forceCoeffs_object write:
    Cm    = -0.364834
    Cd    = 1.93604
    Cl    = -0.472632
    Cl(f) = -0.60115
    Cl(r) = 0.128518

Time = 26

smoothSolver:  Solving for Ux, Initial residual = 0.00420515, Final residual = 0.000400676, No Iterations 10
smoothSolver:  Solving for Uy, Initial residual = 0.00863479, Final residual = 0.000737742, No Iterations 9
GAMG:  Solving for p, Initial residual = 0.0125358, Final residual = 0.000103698, No Iterations 18
time step continuity errors : sum local = 6.24792e-05, global = 2.41215e-05, cumulative = 0.000724951
smoothSolver:  Solving for omega, Initial residual = 0.000385552, Final residual = 3.32451e-05, No Iterations 2
smoothSolver:  Solving for k, Initial residual = 0.000895733, Final residual = 7.90467e-05, No Iterations 2
ExecutionTime = 0.76 s  ClockTime = 2 s

forceCoeffs forceCoeffs_object write:
    Cm    = -0.39702
    Cd    = 1.8789
    Cl    = -0.440504
    Cl(f) = -0.617272
    Cl(r) = 0.176768

Time = 27

smoothSolver:  Solving for Ux, Initial residual = 0.00439881, Final residual = 0.000421121, No Iterations 10
smoothSolver:  Solving for Uy, Initial residual = 0.00999853, Final residual = 0.000984975, No Iterations 8
GAMG:  Solving for p, Initial residual = 0.0125086, Final residual = 0.000106558, No Iterations 18
time step continuity errors : sum local = 6.7201e-05, global = 2.71812e-05, cumulative = 0.000752132
smoothSolver:  Solving for omega, Initial residual = 0.000364083, Final residual = 3.12871e-05, No Iterations 2
smoothSolver:  Solving for k, Initial residual = 0.000854959, Final residual = 7.541e-05, No Iterations 2
ExecutionTime = 0.78 s  ClockTime = 2 s

forceCoeffs forceCoeffs_object write:
    Cm    = -0.42187
    Cd    = 1.78396
    Cl    = -0.40184
    Cl(f) = -0.622789
    Cl(r) = 0.22095

Time = 28

smoothSolver:  Solving for Ux, Initial residual = 0.00467218, Final residual = 0.000450039, No Iterations 10
smoothSolver:  Solving for Uy, Initial residual = 0.0117448, Final residual = 0.00115106, No Iterations 8
GAMG:  Solving for p, Initial residual = 0.012429, Final residual = 0.000106369, No Iterations 18
time step continuity errors : sum local = 7.13249e-05, global = 3.04837e-05, cumulative = 0.000782616
smoothSolver:  Solving for omega, Initial residual = 0.000329355, Final residual = 2.97753e-05, No Iterations 2
smoothSolver:  Solving for k, Initial residual = 0.000840643, Final residual = 7.11529e-05, No Iterations 2
ExecutionTime = 0.81 s  ClockTime = 2 s

forceCoeffs forceCoeffs_object write:
    Cm    = -0.432535
    Cd    = 1.64878
    Cl    = -0.354536
    Cl(f) = -0.609803
    Cl(r) = 0.255267

Time = 29

smoothSolver:  Solving for Ux, Initial residual = 0.00504804, Final residual = 0.000485203, No Iterations 10
smoothSolver:  Solving for Uy, Initial residual = 0.0141407, Final residual = 0.00138803, No Iterations 8
GAMG:  Solving for p, Initial residual = 0.0120213, Final residual = 0.000111432, No Iterations 18
time step continuity errors : sum local = 7.96533e-05, global = 3.67187e-05, cumulative = 0.000819334
smoothSolver:  Solving for omega, Initial residual = 0.00031479, Final residual = 2.92185e-05, No Iterations 2
smoothSolver:  Solving for k, Initial residual = 0.000848101, Final residual = 7.27189e-05, No Iterations 2
ExecutionTime = 0.84 s  ClockTime = 2 s

forceCoeffs forceCoeffs_object write:
    Cm    = -0.424823
    Cd    = 1.47072
    Cl    = -0.296471
    Cl(f) = -0.573058
    Cl(r) = 0.276588

Time = 30

smoothSolver:  Solving for Ux, Initial residual = 0.00543354, Final residual = 0.000506327, No Iterations 10
smoothSolver:  Solving for Uy, Initial residual = 0.0170574, Final residual = 0.00148159, No Iterations 9
GAMG:  Solving for p, Initial residual = 0.0120387, Final residual = 0.000115036, No Iterations 18
time step continuity errors : sum local = 8.76902e-05, global = 4.22994e-05, cumulative = 0.000861634
smoothSolver:  Solving for omega, Initial residual = 0.000307005, Final residual = 2.81687e-05, No Iterations 2
smoothSolver:  Solving for k, Initial residual = 0.000893101, Final residual = 7.54936e-05, No Iterations 2
ExecutionTime = 0.86 s  ClockTime = 2 s

forceCoeffs forceCoeffs_object write:
    Cm    = -0.394185
    Cd    = 1.26295
    Cl    = -0.23354
    Cl(f) = -0.510956
    Cl(r) = 0.277415

Time = 31

smoothSolver:  Solving for Ux, Initial residual = 0.00578958, Final residual = 0.000527339, No Iterations 10
smoothSolver:  Solving for Uy, Initial residual = 0.0214915, Final residual = 0.00186793, No Iterations 9
GAMG:  Solving for p, Initial residual = 0.0118823, Final residual = 0.00011457, No Iterations 19
time step continuity errors : sum local = 9.26611e-05, global = -4.8225e-05, cumulative = 0.000813409
smoothSolver:  Solving for omega, Initial residual = 0.00029754, Final residual = 2.74567e-05, No Iterations 2
smoothSolver:  Solving for k, Initial residual = 0.000972237, Final residual = 8.08353e-05, No Iterations 2
ExecutionTime = 0.89 s  ClockTime = 2 s

forceCoeffs forceCoeffs_object write:
    Cm    = -0.334262
    Cd    = 1.00267
    Cl    = -0.159214
    Cl(f) = -0.41387
    Cl(r) = 0.254655

Time = 32

smoothSolver:  Solving for Ux, Initial residual = 0.00618498, Final residual = 0.000537418, No Iterations 10
smoothSolver:  Solving for Uy, Initial residual = 0.0278415, Final residual = 0.00241023, No Iterations 9
GAMG:  Solving for p, Initial residual = 0.0120669, Final residual = 0.000107394, No Iterations 18
time step continuity errors : sum local = 9.09921e-05, global = 4.39764e-05, cumulative = 0.000857385
smoothSolver:  Solving for omega, Initial residual = 0.000303047, Final residual = 2.7386e-05, No Iterations 2
smoothSolver:  Solving for k, Initial residual = 0.0010658, Final residual = 8.22599e-05, No Iterations 2
ExecutionTime = 0.92 s  ClockTime = 2 s

forceCoeffs forceCoeffs_object write:
    Cm    = -0.261537
    Cd    = 0.750144
    Cl    = -0.090033
    Cl(f) = -0.306553
    Cl(r) = 0.21652

Time = 33

smoothSolver:  Solving for Ux, Initial residual = 0.00651968, Final residual = 0.000573594, No Iterations 10
smoothSolver:  Solving for Uy, Initial residual = 0.0372286, Final residual = 0.00320356, No Iterations 9
GAMG:  Solving for p, Initial residual = 0.0107177, Final residual = 9.62698e-05, No Iterations 19
time step continuity errors : sum local = 8.41955e-05, global = -4.35954e-05, cumulative = 0.00081379
smoothSolver:  Solving for omega, Initial residual = 0.00029884, Final residual = 2.68049e-05, No Iterations 2
smoothSolver:  Solving for k, Initial residual = 0.00117492, Final residual = 8.35122e-05, No Iterations 2
ExecutionTime = 0.95 s  ClockTime = 2 s

forceCoeffs forceCoeffs_object write:
    Cm    = -0.165134
    Cd    = 0.460611
    Cl    = -0.0128723
    Cl(f) = -0.17157
    Cl(r) = 0.158698

Time = 34

smoothSolver:  Solving for Ux, Initial residual = 0.00667592, Final residual = 0.000631843, No Iterations 10
smoothSolver:  Solving for Uy, Initial residual = 0.0520899, Final residual = 0.00459219, No Iterations 9
GAMG:  Solving for p, Initial residual = 0.011117, Final residual = 0.000110989, No Iterations 18
time step continuity errors : sum local = 9.656e-05, global = 5.04372e-05, cumulative = 0.000864227
smoothSolver:  Solving for omega, Initial residual = 0.000290349, Final residual = 2.55502e-05, No Iterations 2
smoothSolver:  Solving for k, Initial residual = 0.00125714, Final residual = 8.50765e-05, No Iterations 2
ExecutionTime = 0.98 s  ClockTime = 2 s

forceCoeffs forceCoeffs_object write:
    Cm    = -0.0666456
    Cd    = 0.202982
    Cl    = 0.0529209
    Cl(f) = -0.0401852
    Cl(r) = 0.0931061

Time = 35

smoothSolver:  Solving for Ux, Initial residual = 0.00687752, Final residual = 0.000610191, No Iterations 11
smoothSolver:  Solving for Uy, Initial residual = 0.073968, Final residual = 0.00675612, No Iterations 9
GAMG:  Solving for p, Initial residual = 0.0108509, Final residual = 0.000104526, No Iterations 19
time step continuity errors : sum local = 9.04654e-05, global = -4.25426e-05, cumulative = 0.000821684
smoothSolver:  Solving for omega, Initial residual = 0.0002842, Final residual = 2.30732e-05, No Iterations 2
smoothSolver:  Solving for k, Initial residual = 0.00134253, Final residual = 9.00227e-05, No Iterations 2
ExecutionTime = 1.01 s  ClockTime = 2 s

forceCoeffs forceCoeffs_object write:
    Cm    = 0.0227658
    Cd    = 0.00282374
    Cl    = 0.0998623
    Cl(f) = 0.0726969
    Cl(r) = 0.0271654

Time = 36

smoothSolver:  Solving for Ux, Initial residual = 0.00719875, Final residual = 0.000682401, No Iterations 11
smoothSolver:  Solving for Uy, Initial residual = 0.0852558, Final residual = 0.00782691, No Iterations 9
GAMG:  Solving for p, Initial residual = 0.0109074, Final residual = 9.15358e-05, No Iterations 21
time step continuity errors : sum local = 7.61312e-05, global = -3.37655e-05, cumulative = 0.000787919
smoothSolver:  Solving for omega, Initial residual = 0.000279567, Final residual = 2.22231e-05, No Iterations 2
smoothSolver:  Solving for k, Initial residual = 0.00136548, Final residual = 8.98638e-05, No Iterations 2
ExecutionTime = 1.04 s  ClockTime = 2 s

forceCoeffs forceCoeffs_object write:
    Cm    = 0.104913
    Cd    = -0.171873
    Cl    = 0.138133
    Cl(f) = 0.173979
    Cl(r) = -0.0358465

Time = 37

smoothSolver:  Solving for Ux, Initial residual = 0.00788577, Final residual = 0.000761521, No Iterations 11
smoothSolver:  Solving for Uy, Initial residual = 0.0731092, Final residual = 0.00690913, No Iterations 9
GAMG:  Solving for p, Initial residual = 0.0131933, Final residual = 0.000130247, No Iterations 19
time step continuity errors : sum local = 9.92498e-05, global = -4.21802e-05, cumulative = 0.000745738
smoothSolver:  Solving for omega, Initial residual = 0.000271376, Final residual = 2.23632e-05, No Iterations 2
smoothSolver:  Solving for k, Initial residual = 0.00135289, Final residual = 8.46208e-05, No Iterations 2
ExecutionTime = 1.06 s  ClockTime = 2 s

forceCoeffs forceCoeffs_object write:
    Cm    = 0.153686
    Cd    = -0.264164
    Cl    = 0.154156
    Cl(f) = 0.230764
    Cl(r) = -0.0766076

Time = 38

smoothSolver:  Solving for Ux, Initial residual = 0.00910651, Final residual = 0.000861271, No Iterations 11
smoothSolver:  Solving for Uy, Initial residual = 0.0673732, Final residual = 0.00663024, No Iterations 9
GAMG:  Solving for p, Initial residual = 0.0165815, Final residual = 0.00016345, No Iterations 14
time step continuity errors : sum local = 0.00011581, global = 4.69803e-05, cumulative = 0.000792719
smoothSolver:  Solving for omega, Initial residual = 0.000277165, Final residual = 2.30246e-05, No Iterations 2
smoothSolver:  Solving for k, Initial residual = 0.00137926, Final residual = 8.57178e-05, No Iterations 2
ExecutionTime = 1.09 s  ClockTime = 2 s

forceCoeffs forceCoeffs_object write:
    Cm    = 0.169306
    Cd    = -0.303298
    Cl    = 0.158633
    Cl(f) = 0.248622
    Cl(r) = -0.0899892

Time = 39

smoothSolver:  Solving for Ux, Initial residual = 0.0110877, Final residual = 0.00104584, No Iterations 11
smoothSolver:  Solving for Uy, Initial residual = 0.072576, Final residual = 0.00653364, No Iterations 10
GAMG:  Solving for p, Initial residual = 0.0185989, Final residual = 0.000172277, No Iterations 11
time step continuity errors : sum local = 0.000104246, global = -2.72229e-05, cumulative = 0.000765496
smoothSolver:  Solving for omega, Initial residual = 0.000280095, Final residual = 2.39025e-05, No Iterations 2
smoothSolver:  Solving for k, Initial residual = 0.00143438, Final residual = 9.37482e-05, No Iterations 2
ExecutionTime = 1.11 s  ClockTime = 3 s

forceCoeffs forceCoeffs_object write:
    Cm    = 0.133212
    Cd    = -0.220896
    Cl    = 0.134458
    Cl(f) = 0.200441
    Cl(r) = -0.0659834

Time = 40

smoothSolver:  Solving for Ux, Initial residual = 0.013215, Final residual = 0.00114846, No Iterations 11
smoothSolver:  Solving for Uy, Initial residual = 0.0779618, Final residual = 0.00702171, No Iterations 10
GAMG:  Solving for p, Initial residual = 0.0202937, Final residual = 0.000192244, No Iterations 12
time step continuity errors : sum local = 0.000114292, global = -3.69065e-05, cumulative = 0.000728589
smoothSolver:  Solving for omega, Initial residual = 0.000280599, Final residual = 2.65774e-05, No Iterations 2
smoothSolver:  Solving for k, Initial residual = 0.00158316, Final residual = 0.000114786, No Iterations 2
ExecutionTime = 1.13 s  ClockTime = 3 s

forceCoeffs forceCoeffs_object write:
    Cm    = 0.0905218
    Cd    = -0.117802
    Cl    = 0.104865
    Cl(f) = 0.142954
    Cl(r) = -0.0380894

Time = 41

smoothSolver:  Solving for Ux, Initial residual = 0.0165119, Final residual = 0.00153485, No Iterations 10
smoothSolver:  Solving for Uy, Initial residual = 0.0953583, Final residual = 0.00935959, No Iterations 9
GAMG:  Solving for p, Initial residual = 0.0246926, Final residual = 0.000212039, No Iterations 13
time step continuity errors : sum local = 0.000124945, global = 4.43857e-05, cumulative = 0.000772975
smoothSolver:  Solving for omega, Initial residual = 0.000282313, Final residual = 2.7959e-05, No Iterations 2
smoothSolver:  Solving for k, Initial residual = 0.00174412, Final residual = 0.000132736, No Iterations 2
ExecutionTime = 1.16 s  ClockTime = 3 s

forceCoeffs forceCoeffs_object write:
    Cm    = 0.0558451
    Cd    = -0.0238345
    Cl    = 0.07532
    Cl(f) = 0.0935051
    Cl(r) = -0.0181851

Time = 42

smoothSolver:  Solving for Ux, Initial residual = 0.0202985, Final residual = 0.00190962, No Iterations 10
smoothSolver:  Solving for Uy, Initial residual = 0.0861064, Final residual = 0.00838998, No Iterations 9
GAMG:  Solving for p, Initial residual = 0.0238685, Final residual = 0.000232191, No Iterations 13
time step continuity errors : sum local = 0.000124629, global = 4.50977e-05, cumulative = 0.000818073
smoothSolver:  Solving for omega, Initial residual = 0.000278518, Final residual = 1.26488e-05, No Iterations 3
smoothSolver:  Solving for k, Initial residual = 0.0019037, Final residual = 0.000150524, No Iterations 2
ExecutionTime = 1.18 s  ClockTime = 3 s

forceCoeffs forceCoeffs_object write:
    Cm    = 0.0172067
    Cd    = 0.109457
    Cl    = 0.0313684
    Cl(f) = 0.0328909
    Cl(r) = -0.00152252

Time = 43

smoothSolver:  Solving for Ux, Initial residual = 0.0242098, Final residual = 0.00213959, No Iterations 10
smoothSolver:  Solving for Uy, Initial residual = 0.0585572, Final residual = 0.00532419, No Iterations 9
GAMG:  Solving for p, Initial residual = 0.02462, Final residual = 0.000241982, No Iterations 14
time step continuity errors : sum local = 0.000127272, global = -6.05255e-05, cumulative = 0.000757547
smoothSolver:  Solving for omega, Initial residual = 0.000274084, Final residual = 1.30929e-05, No Iterations 3
smoothSolver:  Solving for k, Initial residual = 0.00202918, Final residual = 0.000169561, No Iterations 2
ExecutionTime = 1.21 s  ClockTime = 3 s

forceCoeffs forceCoeffs_object write:
    Cm    = -0.0155196
    Cd    = 0.250525
    Cl    = -0.0181716
    Cl(f) = -0.0246054
    Cl(r) = 0.00643381

Time = 44

smoothSolver:  Solving for Ux, Initial residual = 0.0300015, Final residual = 0.00269277, No Iterations 9
smoothSolver:  Solving for Uy, Initial residual = 0.0438787, Final residual = 0.00406342, No Iterations 8
GAMG:  Solving for p, Initial residual = 0.0236804, Final residual = 0.000212492, No Iterations 16
time step continuity errors : sum local = 0.000106249, global = -5.18757e-05, cumulative = 0.000705671
smoothSolver:  Solving for omega, Initial residual = 0.000267631, Final residual = 1.367e-05, No Iterations 3
smoothSolver:  Solving for k, Initial residual = 0.00217566, Final residual = 0.000182077, No Iterations 2
ExecutionTime = 1.23 s  ClockTime = 3 s

forceCoeffs forceCoeffs_object write:
    Cm    = -0.0336416
    Cd    = 0.363875
    Cl    = -0.0623612
    Cl(f) = -0.0648222
    Cl(r) = 0.002461

Time = 45

smoothSolver:  Solving for Ux, Initial residual = 0.035306, Final residual = 0.00336251, No Iterations 8
smoothSolver:  Solving for Uy, Initial residual = 0.0353137, Final residual = 0.00301567, No Iterations 8
GAMG:  Solving for p, Initial residual = 0.0288942, Final residual = 0.000283984, No Iterations 15
time step continuity errors : sum local = 0.000128759, global = 5.62526e-05, cumulative = 0.000761924
smoothSolver:  Solving for omega, Initial residual = 0.000266691, Final residual = 1.48063e-05, No Iterations 3
smoothSolver:  Solving for k, Initial residual = 0.00227346, Final residual = 0.000196226, No Iterations 2
ExecutionTime = 1.26 s  ClockTime = 3 s

forceCoeffs forceCoeffs_object write:
    Cm    = -0.0410694
    Cd    = 0.452764
    Cl    = -0.101024
    Cl(f) = -0.0915815
    Cl(r) = -0.00944276

Time = 46

smoothSolver:  Solving for Ux, Initial residual = 0.0393023, Final residual = 0.00349248, No Iterations 8
smoothSolver:  Solving for Uy, Initial residual = 0.0294053, Final residual = 0.00258535, No Iterations 8
GAMG:  Solving for p, Initial residual = 0.0343941, Final residual = 0.000314192, No Iterations 15
time step continuity errors : sum local = 0.000127983, global = 6.4153e-05, cumulative = 0.000826077
smoothSolver:  Solving for omega, Initial residual = 0.000265223, Final residual = 1.55727e-05, No Iterations 3
smoothSolver:  Solving for k, Initial residual = 0.00241632, Final residual = 0.000217664, No Iterations 2
ExecutionTime = 1.28 s  ClockTime = 3 s

forceCoeffs forceCoeffs_object write:
    Cm    = -0.045617
    Cd    = 0.535792
    Cl    = -0.139053
    Cl(f) = -0.115144
    Cl(r) = -0.0239096

Time = 47

smoothSolver:  Solving for Ux, Initial residual = 0.0424683, Final residual = 0.00360206, No Iterations 8
smoothSolver:  Solving for Uy, Initial residual = 0.0255591, Final residual = 0.00224939, No Iterations 8
GAMG:  Solving for p, Initial residual = 0.0375391, Final residual = 0.000359856, No Iterations 15
time step continuity errors : sum local = 0.000126175, global = 6.20838e-05, cumulative = 0.000888161
smoothSolver:  Solving for omega, Initial residual = 0.000262838, Final residual = 1.61138e-05, No Iterations 3
smoothSolver:  Solving for k, Initial residual = 0.00241925, Final residual = 0.000238685, No Iterations 2
ExecutionTime = 1.31 s  ClockTime = 3 s

forceCoeffs forceCoeffs_object write:
    Cm    = -0.04396
    Cd    = 0.593749
    Cl    = -0.169745
    Cl(f) = -0.128832
    Cl(r) = -0.0409123

Time = 48

smoothSolver:  Solving for Ux, Initial residual = 0.0416734, Final residual = 0.00403613, No Iterations 7
smoothSolver:  Solving for Uy, Initial residual = 0.0228367, Final residual = 0.002176, No Iterations 7
GAMG:  Solving for p, Initial residual = 0.0562069, Final residual = 0.000487278, No Iterations 14
time step continuity errors : sum local = 0.000144942, global = -7.14135e-05, cumulative = 0.000816747
smoothSolver:  Solving for omega, Initial residual = 0.000258709, Final residual = 1.5884e-05, No Iterations 3
smoothSolver:  Solving for k, Initial residual = 0.00244246, Final residual = 0.000239334, No Iterations 2
ExecutionTime = 1.33 s  ClockTime = 3 s

forceCoeffs forceCoeffs_object write:
    Cm    = -0.0441218
    Cd    = 0.646786
    Cl    = -0.198206
    Cl(f) = -0.143225
    Cl(r) = -0.054981

Time = 49

smoothSolver:  Solving for Ux, Initial residual = 0.0389358, Final residual = 0.00361691, No Iterations 7
smoothSolver:  Solving for Uy, Initial residual = 0.0215519, Final residual = 0.00196786, No Iterations 7
GAMG:  Solving for p, Initial residual = 0.0614536, Final residual = 0.000579211, No Iterations 16
time step continuity errors : sum local = 0.000111293, global = -5.03041e-05, cumulative = 0.000766443
smoothSolver:  Solving for omega, Initial residual = 0.000256255, Final residual = 1.57567e-05, No Iterations 3
smoothSolver:  Solving for k, Initial residual = 0.00237519, Final residual = 9.72724e-05, No Iterations 3
ExecutionTime = 1.36 s  ClockTime = 3 s

forceCoeffs forceCoeffs_object write:
    Cm    = -0.0436641
    Cd    = 0.682914
    Cl    = -0.219998
    Cl(f) = -0.153663
    Cl(r) = -0.0663351

Time = 50

smoothSolver:  Solving for Ux, Initial residual = 0.0339595, Final residual = 0.00307935, No Iterations 7
smoothSolver:  Solving for Uy, Initial residual = 0.0203854, Final residual = 0.00188871, No Iterations 7
GAMG:  Solving for p, Initial residual = 0.0875841, Final residual = 0.000772608, No Iterations 16
time step continuity errors : sum local = 9.29114e-05, global = -3.77181e-05, cumulative = 0.000728725
smoothSolver:  Solving for omega, Initial residual = 0.000252322, Final residual = 1.50315e-05, No Iterations 3
smoothSolver:  Solving for k, Initial residual = 0.00218968, Final residual = 0.000102373, No Iterations 3
ExecutionTime = 1.42 s  ClockTime = 3 s

forceCoeffs forceCoeffs_object write:
    Cm    = -0.0475677
    Cd    = 0.713156
    Cl    = -0.237028
    Cl(f) = -0.166082
    Cl(r) = -0.0709462

yPlus yPlus write:
    writing object yPlus
    patch suction_side y+ : min = 12.1764, max = 52.9625, average = 29.2696
    patch pressure_side y+ : min = 10.4612, max = 38.7873, average = 29.9686
    patch trailing_edge y+ : min = 89.2225, max = 126.265, average = 107.744

Time = 51

smoothSolver:  Solving for Ux, Initial residual = 0.028726, Final residual = 0.00255488, No Iterations 7
smoothSolver:  Solving for Uy, Initial residual = 0.0187983, Final residual = 0.00181581, No Iterations 7
GAMG:  Solving for p, Initial residual = 0.12427, Final residual = 0.00115924, No Iterations 15
time step continuity errors : sum local = 9.38688e-05, global = 4.52746e-05, cumulative = 0.000774
smoothSolver:  Solving for omega, Initial residual = 0.000244996, Final residual = 1.43491e-05, No Iterations 3
smoothSolver:  Solving for k, Initial residual = 0.00201574, Final residual = 8.60701e-05, No Iterations 3
ExecutionTime = 1.45 s  ClockTime = 3 s

forceCoeffs forceCoeffs_object write:
    Cm    = -0.0624523
    Cd    = 0.75962
    Cl    = -0.255765
    Cl(f) = -0.190335
    Cl(r) = -0.0654303

Time = 52

smoothSolver:  Solving for Ux, Initial residual = 0.0245093, Final residual = 0.0021687, No Iterations 7
smoothSolver:  Solving for Uy, Initial residual = 0.0174718, Final residual = 0.00173361, No Iterations 7
GAMG:  Solving for p, Initial residual = 0.141789, Final residual = 0.00141293, No Iterations 15
time step continuity errors : sum local = 0.00010412, global = 5.13584e-05, cumulative = 0.000825358
smoothSolver:  Solving for omega, Initial residual = 0.000245454, Final residual = 1.33818e-05, No Iterations 3
smoothSolver:  Solving for k, Initial residual = 0.00183004, Final residual = 8.44916e-05, No Iterations 3
ExecutionTime = 1.47 s  ClockTime = 3 s

forceCoeffs forceCoeffs_object write:
    Cm    = -0.0838717
    Cd    = 0.816931
    Cl    = -0.275193
    Cl(f) = -0.221468
    Cl(r) = -0.053725

Time = 53

smoothSolver:  Solving for Ux, Initial residual = 0.0210918, Final residual = 0.00191112, No Iterations 7
smoothSolver:  Solving for Uy, Initial residual = 0.0163476, Final residual = 0.00137431, No Iterations 8
GAMG:  Solving for p, Initial residual = 0.106987, Final residual = 0.000993737, No Iterations 17
time step continuity errors : sum local = 9.19942e-05, global = 4.04836e-05, cumulative = 0.000865842
smoothSolver:  Solving for omega, Initial residual = 0.000242374, Final residual = 1.22968e-05, No Iterations 3
smoothSolver:  Solving for k, Initial residual = 0.00161603, Final residual = 7.39113e-05, No Iterations 3
ExecutionTime = 1.5 s  ClockTime = 3 s

forceCoeffs forceCoeffs_object write:
    Cm    = -0.105718
    Cd    = 0.874592
    Cl    = -0.293215
    Cl(f) = -0.252325
    Cl(r) = -0.0408895

Time = 54

smoothSolver:  Solving for Ux, Initial residual = 0.0186566, Final residual = 0.00178162, No Iterations 7
smoothSolver:  Solving for Uy, Initial residual = 0.0156129, Final residual = 0.0015383, No Iterations 7
GAMG:  Solving for p, Initial residual = 0.0684203, Final residual = 0.000673791, No Iterations 18
time step continuity errors : sum local = 8.89432e-05, global = -4.38291e-05, cumulative = 0.000822013
smoothSolver:  Solving for omega, Initial residual = 0.000245663, Final residual = 1.13284e-05, No Iterations 3
smoothSolver:  Solving for k, Initial residual = 0.00140142, Final residual = 6.23098e-05, No Iterations 3
ExecutionTime = 1.52 s  ClockTime = 3 s

forceCoeffs forceCoeffs_object write:
    Cm    = -0.125369
    Cd    = 0.925789
    Cl    = -0.308887
    Cl(f) = -0.279813
    Cl(r) = -0.029075

Time = 55

smoothSolver:  Solving for Ux, Initial residual = 0.0168318, Final residual = 0.00149727, No Iterations 8
smoothSolver:  Solving for Uy, Initial residual = 0.0151748, Final residual = 0.001475, No Iterations 7
GAMG:  Solving for p, Initial residual = 0.049532, Final residual = 0.000478661, No Iterations 18
time step continuity errors : sum local = 8.59678e-05, global = -4.35965e-05, cumulative = 0.000778416
smoothSolver:  Solving for omega, Initial residual = 0.000257429, Final residual = 2.5688e-05, No Iterations 2
smoothSolver:  Solving for k, Initial residual = 0.00121682, Final residual = 5.47182e-05, No Iterations 3
ExecutionTime = 1.55 s  ClockTime = 3 s

forceCoeffs forceCoeffs_object write:
    Cm    = -0.141172
    Cd    = 0.965701
    Cl    = -0.320829
    Cl(f) = -0.301586
    Cl(r) = -0.0192431

Time = 56

smoothSolver:  Solving for Ux, Initial residual = 0.0156113, Final residual = 0.00152396, No Iterations 8
smoothSolver:  Solving for Uy, Initial residual = 0.0151574, Final residual = 0.00146074, No Iterations 7
GAMG:  Solving for p, Initial residual = 0.0396766, Final residual = 0.000378195, No Iterations 17
time step continuity errors : sum local = 8.59512e-05, global = 3.36939e-05, cumulative = 0.00081211
smoothSolver:  Solving for omega, Initial residual = 0.000273509, Final residual = 2.58007e-05, No Iterations 2
smoothSolver:  Solving for k, Initial residual = 0.00106084, Final residual = 5.08311e-05, No Iterations 3
ExecutionTime = 1.58 s  ClockTime = 3 s

forceCoeffs forceCoeffs_object write:
    Cm    = -0.152784
    Cd    = 0.996591
    Cl    = -0.329703
    Cl(f) = -0.317635
    Cl(r) = -0.0120674

Time = 57

smoothSolver:  Solving for Ux, Initial residual = 0.0146561, Final residual = 0.00132754, No Iterations 9
smoothSolver:  Solving for Uy, Initial residual = 0.0152561, Final residual = 0.00147534, No Iterations 7
GAMG:  Solving for p, Initial residual = 0.0324536, Final residual = 0.000265947, No Iterations 17
time step continuity errors : sum local = 7.35759e-05, global = 3.00166e-05, cumulative = 0.000842127
smoothSolver:  Solving for omega, Initial residual = 0.000285988, Final residual = 2.66976e-05, No Iterations 2
smoothSolver:  Solving for k, Initial residual = 0.00094735, Final residual = 4.58312e-05, No Iterations 3
ExecutionTime = 1.6 s  ClockTime = 3 s

forceCoeffs forceCoeffs_object write:
    Cm    = -0.156588
    Cd    = 1.01181
    Cl    = -0.333985
    Cl(f) = -0.323581
    Cl(r) = -0.0104046

Time = 58

smoothSolver:  Solving for Ux, Initial residual = 0.0138057, Final residual = 0.00131028, No Iterations 9
smoothSolver:  Solving for Uy, Initial residual = 0.0155467, Final residual = 0.0015308, No Iterations 7
GAMG:  Solving for p, Initial residual = 0.0273376, Final residual = 0.000243528, No Iterations 15
time step continuity errors : sum local = 7.89467e-05, global = 3.0972e-05, cumulative = 0.000873099
smoothSolver:  Solving for omega, Initial residual = 0.000289757, Final residual = 2.74149e-05, No Iterations 2
smoothSolver:  Solving for k, Initial residual = 0.000869971, Final residual = 4.21248e-05, No Iterations 3
ExecutionTime = 1.63 s  ClockTime = 3 s

forceCoeffs forceCoeffs_object write:
    Cm    = -0.15232
    Cd    = 1.01271
    Cl    = -0.334169
    Cl(f) = -0.319405
    Cl(r) = -0.0147641

Time = 59

smoothSolver:  Solving for Ux, Initial residual = 0.0129583, Final residual = 0.00127459, No Iterations 9
smoothSolver:  Solving for Uy, Initial residual = 0.0158408, Final residual = 0.0013801, No Iterations 8
GAMG:  Solving for p, Initial residual = 0.0236849, Final residual = 0.000179867, No Iterations 13
time step continuity errors : sum local = 6.60386e-05, global = 2.07404e-05, cumulative = 0.000893839
smoothSolver:  Solving for omega, Initial residual = 0.00029869, Final residual = 2.84365e-05, No Iterations 2
smoothSolver:  Solving for k, Initial residual = 0.000808427, Final residual = 3.9446e-05, No Iterations 3
ExecutionTime = 1.65 s  ClockTime = 3 s

forceCoeffs forceCoeffs_object write:
    Cm    = -0.137522
    Cd    = 0.994025
    Cl    = -0.328805
    Cl(f) = -0.301924
    Cl(r) = -0.0268808

Time = 60

smoothSolver:  Solving for Ux, Initial residual = 0.0121828, Final residual = 0.00104433, No Iterations 10
smoothSolver:  Solving for Uy, Initial residual = 0.0162865, Final residual = 0.00146135, No Iterations 8
GAMG:  Solving for p, Initial residual = 0.019895, Final residual = 0.000175942, No Iterations 14
time step continuity errors : sum local = 7.11348e-05, global = 3.97767e-05, cumulative = 0.000933616
smoothSolver:  Solving for omega, Initial residual = 0.000304863, Final residual = 2.9457e-05, No Iterations 2
smoothSolver:  Solving for k, Initial residual = 0.000773225, Final residual = 3.73687e-05, No Iterations 3
ExecutionTime = 1.68 s  ClockTime = 3 s

forceCoeffs forceCoeffs_object write:
    Cm    = -0.11377
    Cd    = 0.960118
    Cl    = -0.319174
    Cl(f) = -0.273357
    Cl(r) = -0.0458167

Time = 61

smoothSolver:  Solving for Ux, Initial residual = 0.0114131, Final residual = 0.000979034, No Iterations 10
smoothSolver:  Solving for Uy, Initial residual = 0.0170389, Final residual = 0.00157325, No Iterations 8
GAMG:  Solving for p, Initial residual = 0.0184316, Final residual = 0.000155154, No Iterations 15
time step continuity errors : sum local = 6.75147e-05, global = -3.46697e-05, cumulative = 0.000898946
smoothSolver:  Solving for omega, Initial residual = 0.000306988, Final residual = 3.06062e-05, No Iterations 2
smoothSolver:  Solving for k, Initial residual = 0.000743996, Final residual = 3.52706e-05, No Iterations 3
ExecutionTime = 1.7 s  ClockTime = 3 s

forceCoeffs forceCoeffs_object write:
    Cm    = -0.0828756
    Cd    = 0.913892
    Cl    = -0.306073
    Cl(f) = -0.235912
    Cl(r) = -0.070161

Time = 62

smoothSolver:  Solving for Ux, Initial residual = 0.010675, Final residual = 0.00106456, No Iterations 9
smoothSolver:  Solving for Uy, Initial residual = 0.018221, Final residual = 0.00173703, No Iterations 8
GAMG:  Solving for p, Initial residual = 0.0170297, Final residual = 0.000169465, No Iterations 15
time step continuity errors : sum local = 7.83068e-05, global = -3.67261e-05, cumulative = 0.00086222
smoothSolver:  Solving for omega, Initial residual = 0.000310411, Final residual = 3.02444e-05, No Iterations 2
smoothSolver:  Solving for k, Initial residual = 0.00073289, Final residual = 3.22317e-05, No Iterations 3
ExecutionTime = 1.73 s  ClockTime = 3 s

forceCoeffs forceCoeffs_object write:
    Cm    = -0.0475588
    Cd    = 0.859139
    Cl    = -0.290641
    Cl(f) = -0.192879
    Cl(r) = -0.0977619

Time = 63

smoothSolver:  Solving for Ux, Initial residual = 0.00996172, Final residual = 0.000996108, No Iterations 9
smoothSolver:  Solving for Uy, Initial residual = 0.0200106, Final residual = 0.00197886, No Iterations 8
GAMG:  Solving for p, Initial residual = 0.0158092, Final residual = 0.00013, No Iterations 17
time step continuity errors : sum local = 6.30122e-05, global = -2.6653e-05, cumulative = 0.000835567
smoothSolver:  Solving for omega, Initial residual = 0.000301304, Final residual = 1.18469e-05, No Iterations 3
smoothSolver:  Solving for k, Initial residual = 0.000729811, Final residual = 2.96136e-05, No Iterations 3
ExecutionTime = 1.75 s  ClockTime = 3 s

forceCoeffs forceCoeffs_object write:
    Cm    = -0.00965152
    Cd    = 0.799012
    Cl    = -0.273448
    Cl(f) = -0.146376
    Cl(r) = -0.127072

Time = 64

smoothSolver:  Solving for Ux, Initial residual = 0.00931075, Final residual = 0.000801113, No Iterations 10
smoothSolver:  Solving for Uy, Initial residual = 0.0226317, Final residual = 0.00200536, No Iterations 9
GAMG:  Solving for p, Initial residual = 0.0152557, Final residual = 0.000142886, No Iterations 17
time step continuity errors : sum local = 7.19376e-05, global = -3.13836e-05, cumulative = 0.000804184
smoothSolver:  Solving for omega, Initial residual = 0.000292035, Final residual = 1.17928e-05, No Iterations 3
smoothSolver:  Solving for k, Initial residual = 0.000739978, Final residual = 2.86615e-05, No Iterations 3
ExecutionTime = 1.78 s  ClockTime = 3 s

forceCoeffs forceCoeffs_object write:
    Cm    = 0.0275734
    Cd    = 0.739578
    Cl    = -0.255625
    Cl(f) = -0.100239
    Cl(r) = -0.155386

Time = 65

smoothSolver:  Solving for Ux, Initial residual = 0.00868781, Final residual = 0.00074934, No Iterations 10
smoothSolver:  Solving for Uy, Initial residual = 0.0265248, Final residual = 0.0024036, No Iterations 9
GAMG:  Solving for p, Initial residual = 0.014352, Final residual = 0.000115664, No Iterations 19
time step continuity errors : sum local = 5.97581e-05, global = -2.73124e-05, cumulative = 0.000776871
smoothSolver:  Solving for omega, Initial residual = 0.000284184, Final residual = 1.15378e-05, No Iterations 3
smoothSolver:  Solving for k, Initial residual = 0.000752326, Final residual = 7.29206e-05, No Iterations 2
ExecutionTime = 1.81 s  ClockTime = 3 s

forceCoeffs forceCoeffs_object write:
    Cm    = 0.0608942
    Cd    = 0.689324
    Cl    = -0.240031
    Cl(f) = -0.0591213
    Cl(r) = -0.18091

Time = 66

smoothSolver:  Solving for Ux, Initial residual = 0.00816053, Final residual = 0.000708218, No Iterations 10
smoothSolver:  Solving for Uy, Initial residual = 0.031711, Final residual = 0.00293409, No Iterations 9
GAMG:  Solving for p, Initial residual = 0.0137838, Final residual = 0.000135531, No Iterations 18
time step continuity errors : sum local = 7.10513e-05, global = 3.89004e-05, cumulative = 0.000815772
smoothSolver:  Solving for omega, Initial residual = 0.000281533, Final residual = 2.78085e-05, No Iterations 2
smoothSolver:  Solving for k, Initial residual = 0.000773319, Final residual = 7.40666e-05, No Iterations 2
ExecutionTime = 1.84 s  ClockTime = 3 s

forceCoeffs forceCoeffs_object write:
    Cm    = 0.0848399
    Cd    = 0.657803
    Cl    = -0.229157
    Cl(f) = -0.0297384
    Cl(r) = -0.199418

Time = 67

smoothSolver:  Solving for Ux, Initial residual = 0.0076412, Final residual = 0.000670599, No Iterations 10
smoothSolver:  Solving for Uy, Initial residual = 0.0381496, Final residual = 0.00358601, No Iterations 9
GAMG:  Solving for p, Initial residual = 0.0139485, Final residual = 0.000127501, No Iterations 17
time step continuity errors : sum local = 6.68122e-05, global = -3.60116e-05, cumulative = 0.00077976
smoothSolver:  Solving for omega, Initial residual = 0.000279963, Final residual = 2.74434e-05, No Iterations 2
smoothSolver:  Solving for k, Initial residual = 0.000802954, Final residual = 7.3354e-05, No Iterations 2
ExecutionTime = 1.86 s  ClockTime = 3 s

forceCoeffs forceCoeffs_object write:
    Cm    = 0.0968005
    Cd    = 0.646699
    Cl    = -0.223363
    Cl(f) = -0.0148809
    Cl(r) = -0.208482

Time = 68

smoothSolver:  Solving for Ux, Initial residual = 0.00734633, Final residual = 0.000635404, No Iterations 10
smoothSolver:  Solving for Uy, Initial residual = 0.0450734, Final residual = 0.00427907, No Iterations 9
GAMG:  Solving for p, Initial residual = 0.0146474, Final residual = 0.000142114, No Iterations 16
time step continuity errors : sum local = 7.29784e-05, global = 4.1066e-05, cumulative = 0.000820826
smoothSolver:  Solving for omega, Initial residual = 0.000286406, Final residual = 2.80189e-05, No Iterations 2
smoothSolver:  Solving for k, Initial residual = 0.000829672, Final residual = 7.34363e-05, No Iterations 2
ExecutionTime = 1.89 s  ClockTime = 3 s

forceCoeffs forceCoeffs_object write:
    Cm    = 0.0934584
    Cd    = 0.663001
    Cl    = -0.224276
    Cl(f) = -0.0186798
    Cl(r) = -0.205597

Time = 69

smoothSolver:  Solving for Ux, Initial residual = 0.00713662, Final residual = 0.000699385, No Iterations 9
smoothSolver:  Solving for Uy, Initial residual = 0.0505081, Final residual = 0.004825, No Iterations 9
GAMG:  Solving for p, Initial residual = 0.0153101, Final residual = 0.000142962, No Iterations 15
time step continuity errors : sum local = 7.14521e-05, global = -3.88826e-05, cumulative = 0.000781943
smoothSolver:  Solving for omega, Initial residual = 0.000296321, Final residual = 2.93163e-05, No Iterations 2
smoothSolver:  Solving for k, Initial residual = 0.000861679, Final residual = 7.71388e-05, No Iterations 2
ExecutionTime = 1.91 s  ClockTime = 3 s

forceCoeffs forceCoeffs_object write:
    Cm    = 0.0754351
    Cd    = 0.702499
    Cl    = -0.230444
    Cl(f) = -0.0397867
    Cl(r) = -0.190657

Time = 70

smoothSolver:  Solving for Ux, Initial residual = 0.00710772, Final residual = 0.000663046, No Iterations 9
smoothSolver:  Solving for Uy, Initial residual = 0.0514833, Final residual = 0.00490481, No Iterations 9
GAMG:  Solving for p, Initial residual = 0.0159493, Final residual = 0.00013461, No Iterations 16
time step continuity errors : sum local = 6.43693e-05, global = 3.05071e-05, cumulative = 0.000812451
smoothSolver:  Solving for omega, Initial residual = 0.00029007, Final residual = 1.29231e-05, No Iterations 3
smoothSolver:  Solving for k, Initial residual = 0.000883307, Final residual = 8.20518e-05, No Iterations 2
ExecutionTime = 1.94 s  ClockTime = 3 s

forceCoeffs forceCoeffs_object write:
    Cm    = 0.0381542
    Cd    = 0.780864
    Cl    = -0.246167
    Cl(f) = -0.0849294
    Cl(r) = -0.161238

Time = 71

smoothSolver:  Solving for Ux, Initial residual = 0.00717888, Final residual = 0.000628692, No Iterations 9
smoothSolver:  Solving for Uy, Initial residual = 0.0473292, Final residual = 0.00449194, No Iterations 9
GAMG:  Solving for p, Initial residual = 0.0165002, Final residual = 0.000151866, No Iterations 16
time step continuity errors : sum local = 7.03683e-05, global = 3.36268e-05, cumulative = 0.000846077
smoothSolver:  Solving for omega, Initial residual = 0.000297519, Final residual = 1.33623e-05, No Iterations 3
smoothSolver:  Solving for k, Initial residual = 0.000916965, Final residual = 8.61799e-05, No Iterations 2
ExecutionTime = 1.97 s  ClockTime = 3 s

forceCoeffs forceCoeffs_object write:
    Cm    = -0.00032471
    Cd    = 0.861429
    Cl    = -0.263854
    Cl(f) = -0.132252
    Cl(r) = -0.131602

Time = 72

smoothSolver:  Solving for Ux, Initial residual = 0.00727585, Final residual = 0.000608475, No Iterations 9
smoothSolver:  Solving for Uy, Initial residual = 0.0406029, Final residual = 0.00384299, No Iterations 9
GAMG:  Solving for p, Initial residual = 0.0165278, Final residual = 0.000147478, No Iterations 17
time step continuity errors : sum local = 6.54366e-05, global = -3.25516e-05, cumulative = 0.000813526
smoothSolver:  Solving for omega, Initial residual = 0.000294263, Final residual = 1.47048e-05, No Iterations 3
smoothSolver:  Solving for k, Initial residual = 0.00095424, Final residual = 8.91565e-05, No Iterations 2
ExecutionTime = 1.99 s  ClockTime = 3 s

forceCoeffs forceCoeffs_object write:
    Cm    = -0.0418899
    Cd    = 0.946167
    Cl    = -0.283414
    Cl(f) = -0.183597
    Cl(r) = -0.0998169

Time = 73

smoothSolver:  Solving for Ux, Initial residual = 0.00732519, Final residual = 0.00070437, No Iterations 8
smoothSolver:  Solving for Uy, Initial residual = 0.0330948, Final residual = 0.00305786, No Iterations 9
GAMG:  Solving for p, Initial residual = 0.0167982, Final residual = 0.00015718, No Iterations 16
time step continuity errors : sum local = 6.76555e-05, global = 3.21116e-05, cumulative = 0.000845637
smoothSolver:  Solving for omega, Initial residual = 0.000286937, Final residual = 1.46847e-05, No Iterations 3
smoothSolver:  Solving for k, Initial residual = 0.000967185, Final residual = 9.35425e-05, No Iterations 2
ExecutionTime = 2.02 s  ClockTime = 3 s

forceCoeffs forceCoeffs_object write:
    Cm    = -0.0789901
    Cd    = 1.01804
    Cl    = -0.301298
    Cl(f) = -0.229639
    Cl(r) = -0.0716588

Time = 74

smoothSolver:  Solving for Ux, Initial residual = 0.00736907, Final residual = 0.000690095, No Iterations 8
smoothSolver:  Solving for Uy, Initial residual = 0.0269803, Final residual = 0.00247038, No Iterations 9
GAMG:  Solving for p, Initial residual = 0.0184661, Final residual = 0.000172093, No Iterations 16
time step continuity errors : sum local = 7.00915e-05, global = 3.25874e-05, cumulative = 0.000878225
smoothSolver:  Solving for omega, Initial residual = 0.000288203, Final residual = 1.42814e-05, No Iterations 3
smoothSolver:  Solving for k, Initial residual = 0.000980293, Final residual = 9.68014e-05, No Iterations 2
ExecutionTime = 2.05 s  ClockTime = 3 s

forceCoeffs forceCoeffs_object write:
    Cm    = -0.116324
    Cd    = 1.08337
    Cl    = -0.318085
    Cl(f) = -0.275367
    Cl(r) = -0.042718

Time = 75

smoothSolver:  Solving for Ux, Initial residual = 0.00749962, Final residual = 0.00068022, No Iterations 8
smoothSolver:  Solving for Uy, Initial residual = 0.0229512, Final residual = 0.00202317, No Iterations 9
GAMG:  Solving for p, Initial residual = 0.0198021, Final residual = 0.00017266, No Iterations 16
time step continuity errors : sum local = 6.66125e-05, global = 3.10298e-05, cumulative = 0.000909254
smoothSolver:  Solving for omega, Initial residual = 0.000286826, Final residual = 1.50866e-05, No Iterations 3
smoothSolver:  Solving for k, Initial residual = 0.00096155, Final residual = 9.18387e-05, No Iterations 2
ExecutionTime = 2.07 s  ClockTime = 3 s

forceCoeffs forceCoeffs_object write:
    Cm    = -0.153597
    Cd    = 1.14245
    Cl    = -0.33265
    Cl(f) = -0.319922
    Cl(r) = -0.0127283

Time = 76

smoothSolver:  Solving for Ux, Initial residual = 0.00743091, Final residual = 0.000672155, No Iterations 8
smoothSolver:  Solving for Uy, Initial residual = 0.0208319, Final residual = 0.00174578, No Iterations 9
GAMG:  Solving for p, Initial residual = 0.0193296, Final residual = 0.000138399, No Iterations 16
time step continuity errors : sum local = 5.10064e-05, global = 2.41709e-05, cumulative = 0.000933425
smoothSolver:  Solving for omega, Initial residual = 0.00029718, Final residual = 1.55331e-05, No Iterations 3
smoothSolver:  Solving for k, Initial residual = 0.000976901, Final residual = 9.71078e-05, No Iterations 2
ExecutionTime = 2.1 s  ClockTime = 3 s

forceCoeffs forceCoeffs_object write:
    Cm    = -0.188469
    Cd    = 1.1852
    Cl    = -0.340051
    Cl(f) = -0.358495
    Cl(r) = 0.0184439

Time = 77

smoothSolver:  Solving for Ux, Initial residual = 0.00732256, Final residual = 0.000679885, No Iterations 8
smoothSolver:  Solving for Uy, Initial residual = 0.0194308, Final residual = 0.0018726, No Iterations 8
GAMG:  Solving for p, Initial residual = 0.0184496, Final residual = 0.000136691, No Iterations 14
time step continuity errors : sum local = 5.09364e-05, global = 2.8662e-05, cumulative = 0.000962087
smoothSolver:  Solving for omega, Initial residual = 0.000288073, Final residual = 1.5388e-05, No Iterations 3
smoothSolver:  Solving for k, Initial residual = 0.000945645, Final residual = 4.06361e-05, No Iterations 3
ExecutionTime = 2.12 s  ClockTime = 4 s

forceCoeffs forceCoeffs_object write:
    Cm    = -0.223158
    Cd    = 1.22065
    Cl    = -0.344558
    Cl(f) = -0.395437
    Cl(r) = 0.0508792

Time = 78

smoothSolver:  Solving for Ux, Initial residual = 0.00716829, Final residual = 0.000674663, No Iterations 8
smoothSolver:  Solving for Uy, Initial residual = 0.0182518, Final residual = 0.00171004, No Iterations 8
GAMG:  Solving for p, Initial residual = 0.0172181, Final residual = 0.000147704, No Iterations 13
time step continuity errors : sum local = 5.53074e-05, global = 2.09734e-05, cumulative = 0.000983061
smoothSolver:  Solving for omega, Initial residual = 0.000281131, Final residual = 1.41906e-05, No Iterations 3
smoothSolver:  Solving for k, Initial residual = 0.000933551, Final residual = 4.13235e-05, No Iterations 3
[...]
smoothSolver:  Solving for omega, Initial residual = 0.000262314, Final residual = 1.12891e-05, No Iterations 3
smoothSolver:  Solving for k, Initial residual = 0.000872174, Final residual = 4.44061e-05, No Iterations 3
ExecutionTime = 3.06 s  ClockTime = 4 s

forceCoeffs forceCoeffs_object write:
    Cm    = 0.0485816
    Cd    = 0.510173
    Cl    = -0.161027
    Cl(f) = -0.0319318
    Cl(r) = -0.129095

Time = 112

smoothSolver:  Solving for Ux, Initial residual = 0.00765596, Final residual = 0.000656131, No Iterations 10
smoothSolver:  Solving for Uy, Initial residual = 0.0252475, Final residual = 0.00240321, No Iterations 9
GAMG:  Solving for p, Initial residual = 0.0107013, Final residual = 9.03569e-05, No Iterations 16
time step continuity errors : sum local = 4.29437e-05, global = 2.01865e-05, cumulative = 0.00087699
smoothSolver:  Solving for omega, Initial residual = 0.000265033, Final residual = 1.18728e-05, No Iterations 3
smoothSolver:  Solving for k, Initial residual = 0.000862466, Final residual = 4.27717e-05, No Iterations 3
ExecutionTime = 3.08 s  ClockTime = 4 s

forceCoeffs forceCoeffs_object write:
    Cm    = 0.0863978
    Cd    = 0.455365
    Cl    = -0.147059
    Cl(f) = 0.0128685
    Cl(r) = -0.159927

Time = 113

smoothSolver:  Solving for Ux, Initial residual = 0.00770959, Final residual = 0.000742977, No Iterations 9
smoothSolver:  Solving for Uy, Initial residual = 0.0319514, Final residual = 0.00303809, No Iterations 9
GAMG:  Solving for p, Initial residual = 0.0107862, Final residual = 9.50998e-05, No Iterations 16
time step continuity errors : sum local = 4.59998e-05, global = 2.21264e-05, cumulative = 0.000899116
smoothSolver:  Solving for omega, Initial residual = 0.000266491, Final residual = 1.14881e-05, No Iterations 3
smoothSolver:  Solving for k, Initial residual = 0.000856231, Final residual = 3.95232e-05, No Iterations 3
ExecutionTime = 3.11 s  ClockTime = 5 s

forceCoeffs forceCoeffs_object write:
    Cm    = 0.11196
    Cd    = 0.424622
    Cl    = -0.139841
    Cl(f) = 0.0420393
    Cl(r) = -0.18188

Time = 114

smoothSolver:  Solving for Ux, Initial residual = 0.00782401, Final residual = 0.000707143, No Iterations 9
smoothSolver:  Solving for Uy, Initial residual = 0.0396271, Final residual = 0.00374912, No Iterations 9
GAMG:  Solving for p, Initial residual = 0.0112174, Final residual = 0.000109535, No Iterations 15
time step continuity errors : sum local = 5.25053e-05, global = -2.43956e-05, cumulative = 0.000874721
smoothSolver:  Solving for omega, Initial residual = 0.000263595, Final residual = 2.55506e-05, No Iterations 2
smoothSolver:  Solving for k, Initial residual = 0.000843972, Final residual = 3.78135e-05, No Iterations 3
ExecutionTime = 3.14 s  ClockTime = 5 s

forceCoeffs forceCoeffs_object write:
    Cm    = 0.122127
    Cd    = 0.424156
    Cl    = -0.140754
    Cl(f) = 0.0517494
    Cl(r) = -0.192504

Time = 115

smoothSolver:  Solving for Ux, Initial residual = 0.00798099, Final residual = 0.000797566, No Iterations 8
smoothSolver:  Solving for Uy, Initial residual = 0.046561, Final residual = 0.00434406, No Iterations 9
GAMG:  Solving for p, Initial residual = 0.0121096, Final residual = 0.000104414, No Iterations 15
time step continuity errors : sum local = 4.88268e-05, global = -2.07332e-05, cumulative = 0.000853988
smoothSolver:  Solving for omega, Initial residual = 0.000273466, Final residual = 2.57577e-05, No Iterations 2
smoothSolver:  Solving for k, Initial residual = 0.000846668, Final residual = 3.51275e-05, No Iterations 3
ExecutionTime = 3.16 s  ClockTime = 5 s

forceCoeffs forceCoeffs_object write:
    Cm    = 0.118174
    Cd    = 0.451306
    Cl    = -0.149363
    Cl(f) = 0.0434922
    Cl(r) = -0.192855

Time = 116

smoothSolver:  Solving for Ux, Initial residual = 0.00824023, Final residual = 0.000760213, No Iterations 8
smoothSolver:  Solving for Uy, Initial residual = 0.0491375, Final residual = 0.00449161, No Iterations 9
GAMG:  Solving for p, Initial residual = 0.0127864, Final residual = 0.000125011, No Iterations 14
time step continuity errors : sum local = 5.59648e-05, global = 2.32994e-05, cumulative = 0.000877287
smoothSolver:  Solving for omega, Initial residual = 0.000270845, Final residual = 1.10508e-05, No Iterations 3
smoothSolver:  Solving for k, Initial residual = 0.000839128, Final residual = 8.34159e-05, No Iterations 2
ExecutionTime = 3.18 s  ClockTime = 5 s

forceCoeffs forceCoeffs_object write:
    Cm    = 0.0999774
    Cd    = 0.506548
    Cl    = -0.165276
    Cl(f) = 0.0173393
    Cl(r) = -0.182616

Time = 117

smoothSolver:  Solving for Ux, Initial residual = 0.00856344, Final residual = 0.000741661, No Iterations 8
smoothSolver:  Solving for Uy, Initial residual = 0.0458352, Final residual = 0.00413456, No Iterations 9
GAMG:  Solving for p, Initial residual = 0.0136554, Final residual = 0.000122055, No Iterations 15
time step continuity errors : sum local = 5.22176e-05, global = -2.21254e-05, cumulative = 0.000855162
smoothSolver:  Solving for omega, Initial residual = 0.000263614, Final residual = 1.10517e-05, No Iterations 3
smoothSolver:  Solving for k, Initial residual = 0.000845867, Final residual = 8.24065e-05, No Iterations 2
ExecutionTime = 3.21 s  ClockTime = 5 s

forceCoeffs forceCoeffs_object write:
    Cm    = 0.073264
    Cd    = 0.579227
    Cl    = -0.186255
    Cl(f) = -0.0198636
    Cl(r) = -0.166392

Time = 118

smoothSolver:  Solving for Ux, Initial residual = 0.00890839, Final residual = 0.000751329, No Iterations 8
smoothSolver:  Solving for Uy, Initial residual = 0.038912, Final residual = 0.0034823, No Iterations 9
GAMG:  Solving for p, Initial residual = 0.014293, Final residual = 0.00014084, No Iterations 15
time step continuity errors : sum local = 5.73514e-05, global = -2.5192e-05, cumulative = 0.00082997
smoothSolver:  Solving for omega, Initial residual = 0.000262918, Final residual = 1.1799e-05, No Iterations 3
smoothSolver:  Solving for k, Initial residual = 0.000859988, Final residual = 8.38894e-05, No Iterations 2
ExecutionTime = 3.23 s  ClockTime = 5 s

forceCoeffs forceCoeffs_object write:
    Cm    = 0.0411924
    Cd    = 0.66355
    Cl    = -0.210813
    Cl(f) = -0.064214
    Cl(r) = -0.146599

Time = 119

smoothSolver:  Solving for Ux, Initial residual = 0.00922948, Final residual = 0.000781652, No Iterations 8
smoothSolver:  Solving for Uy, Initial residual = 0.0309341, Final residual = 0.00273532, No Iterations 9
GAMG:  Solving for p, Initial residual = 0.0149715, Final residual = 0.000135524, No Iterations 16
time step continuity errors : sum local = 5.21841e-05, global = 2.23399e-05, cumulative = 0.00085231
smoothSolver:  Solving for omega, Initial residual = 0.00025503, Final residual = 1.18162e-05, No Iterations 3
smoothSolver:  Solving for k, Initial residual = 0.00089423, Final residual = 8.47886e-05, No Iterations 2
ExecutionTime = 3.26 s  ClockTime = 5 s

forceCoeffs forceCoeffs_object write:
    Cm    = 0.0100487
    Cd    = 0.745589
    Cl    = -0.235806
    Cl(f) = -0.107854
    Cl(r) = -0.127952

Time = 120

smoothSolver:  Solving for Ux, Initial residual = 0.00951574, Final residual = 0.000823415, No Iterations 8
smoothSolver:  Solving for Uy, Initial residual = 0.0249779, Final residual = 0.00214018, No Iterations 9
GAMG:  Solving for p, Initial residual = 0.0161371, Final residual = 0.000155852, No Iterations 16
time step continuity errors : sum local = 5.52152e-05, global = 2.43148e-05, cumulative = 0.000876624
smoothSolver:  Solving for omega, Initial residual = 0.00025427, Final residual = 1.1853e-05, No Iterations 3
smoothSolver:  Solving for k, Initial residual = 0.000939119, Final residual = 8.89573e-05, No Iterations 2
ExecutionTime = 3.29 s  ClockTime = 5 s

forceCoeffs forceCoeffs_object write:
    Cm    = -0.0192926
    Cd    = 0.822573
    Cl    = -0.260243
    Cl(f) = -0.149414
    Cl(r) = -0.110829

Time = 121

smoothSolver:  Solving for Ux, Initial residual = 0.00970045, Final residual = 0.000851945, No Iterations 8
smoothSolver:  Solving for Uy, Initial residual = 0.0205435, Final residual = 0.00172732, No Iterations 9
GAMG:  Solving for p, Initial residual = 0.0173392, Final residual = 0.000138242, No Iterations 17
time step continuity errors : sum local = 4.41817e-05, global = -1.90671e-05, cumulative = 0.000857557
smoothSolver:  Solving for omega, Initial residual = 0.00025417, Final residual = 1.2199e-05, No Iterations 3
smoothSolver:  Solving for k, Initial residual = 0.000963653, Final residual = 8.79818e-05, No Iterations 2
ExecutionTime = 3.31 s  ClockTime = 5 s

forceCoeffs forceCoeffs_object write:
    Cm    = -0.047271
    Cd    = 0.89269
    Cl    = -0.283111
    Cl(f) = -0.188826
    Cl(r) = -0.0942844

Time = 122

smoothSolver:  Solving for Ux, Initial residual = 0.00976661, Final residual = 0.000868592, No Iterations 8
smoothSolver:  Solving for Uy, Initial residual = 0.0178394, Final residual = 0.00172216, No Iterations 8
GAMG:  Solving for p, Initial residual = 0.0185944, Final residual = 0.00018162, No Iterations 15
time step continuity errors : sum local = 5.10675e-05, global = -2.27415e-05, cumulative = 0.000834816
smoothSolver:  Solving for omega, Initial residual = 0.000255912, Final residual = 1.29396e-05, No Iterations 3
smoothSolver:  Solving for k, Initial residual = 0.000961382, Final residual = 9.27539e-05, No Iterations 2
ExecutionTime = 3.34 s  ClockTime = 5 s

forceCoeffs forceCoeffs_object write:
    Cm    = -0.0755245
    Cd    = 0.956142
    Cl    = -0.302691
    Cl(f) = -0.22687
    Cl(r) = -0.0758208

Time = 123

smoothSolver:  Solving for Ux, Initial residual = 0.00952962, Final residual = 0.000858119, No Iterations 8
smoothSolver:  Solving for Uy, Initial residual = 0.0159448, Final residual = 0.001501, No Iterations 8
GAMG:  Solving for p, Initial residual = 0.0190673, Final residual = 0.000174284, No Iterations 14
time step continuity errors : sum local = 4.52969e-05, global = 2.23337e-05, cumulative = 0.00085715
smoothSolver:  Solving for omega, Initial residual = 0.000246729, Final residual = 1.26805e-05, No Iterations 3
smoothSolver:  Solving for k, Initial residual = 0.000935731, Final residual = 3.70099e-05, No Iterations 3
ExecutionTime = 3.36 s  ClockTime = 5 s

forceCoeffs forceCoeffs_object write:
    Cm    = -0.104762
    Cd    = 1.01501
    Cl    = -0.319156
    Cl(f) = -0.26434
    Cl(r) = -0.0548157

Time = 124

smoothSolver:  Solving for Ux, Initial residual = 0.00909392, Final residual = 0.000821215, No Iterations 8
smoothSolver:  Solving for Uy, Initial residual = 0.0146295, Final residual = 0.00133216, No Iterations 8
GAMG:  Solving for p, Initial residual = 0.0193902, Final residual = 0.000168741, No Iterations 12
time step continuity errors : sum local = 4.31364e-05, global = -2.15289e-05, cumulative = 0.000835621
smoothSolver:  Solving for omega, Initial residual = 0.000241958, Final residual = 1.28092e-05, No Iterations 3
smoothSolver:  Solving for k, Initial residual = 0.000902533, Final residual = 3.78981e-05, No Iterations 3
ExecutionTime = 3.39 s  ClockTime = 5 s

forceCoeffs forceCoeffs_object write:
    Cm    = -0.133141
    Cd    = 1.0664
    Cl    = -0.331998
    Cl(f) = -0.29914
    Cl(r) = -0.0328575

Time = 125

smoothSolver:  Solving for Ux, Initial residual = 0.00860153, Final residual = 0.000764277, No Iterations 8
smoothSolver:  Solving for Uy, Initial residual = 0.0134961, Final residual = 0.00120331, No Iterations 8
GAMG:  Solving for p, Initial residual = 0.0189515, Final residual = 0.000146326, No Iterations 14
time step continuity errors : sum local = 3.8201e-05, global = -1.8067e-05, cumulative = 0.000817554
smoothSolver:  Solving for omega, Initial residual = 0.000231979, Final residual = 1.24188e-05, No Iterations 3
smoothSolver:  Solving for k, Initial residual = 0.000854362, Final residual = 3.90231e-05, No Iterations 3
ExecutionTime = 3.41 s  ClockTime = 5 s

forceCoeffs forceCoeffs_object write:
    Cm    = -0.158552
    Cd    = 1.10533
    Cl    = -0.340557
    Cl(f) = -0.328831
    Cl(r) = -0.0117262

Time = 126

smoothSolver:  Solving for Ux, Initial residual = 0.00804332, Final residual = 0.00069996, No Iterations 8
smoothSolver:  Solving for Uy, Initial residual = 0.0125804, Final residual = 0.00111346, No Iterations 8
GAMG:  Solving for p, Initial residual = 0.0182278, Final residual = 0.000169213, No Iterations 14
time step continuity errors : sum local = 4.53641e-05, global = -2.08565e-05, cumulative = 0.000796697
smoothSolver:  Solving for omega, Initial residual = 0.000225576, Final residual = 1.23233e-05, No Iterations 3
smoothSolver:  Solving for k, Initial residual = 0.00081407, Final residual = 3.96944e-05, No Iterations 3
ExecutionTime = 3.43 s  ClockTime = 5 s

forceCoeffs forceCoeffs_object write:
    Cm    = -0.17987
    Cd    = 1.12939
    Cl    = -0.344614
    Cl(f) = -0.352177
    Cl(r) = 0.00756287

Time = 127

smoothSolver:  Solving for Ux, Initial residual = 0.00749351, Final residual = 0.00064348, No Iterations 8
smoothSolver:  Solving for Uy, Initial residual = 0.0118265, Final residual = 0.0010578, No Iterations 8
GAMG:  Solving for p, Initial residual = 0.0176855, Final residual = 0.000175016, No Iterations 15
time step continuity errors : sum local = 4.81011e-05, global = 1.91154e-05, cumulative = 0.000815812
smoothSolver:  Solving for omega, Initial residual = 0.00022445, Final residual = 1.27595e-05, No Iterations 3
smoothSolver:  Solving for k, Initial residual = 0.000768458, Final residual = 3.85362e-05, No Iterations 3
ExecutionTime = 3.46 s  ClockTime = 5 s

forceCoeffs forceCoeffs_object write:
    Cm    = -0.197596
    Cd    = 1.1412
    Cl    = -0.344909
    Cl(f) = -0.370051
    Cl(r) = 0.0251418

Time = 128

smoothSolver:  Solving for Ux, Initial residual = 0.00699889, Final residual = 0.000602766, No Iterations 8
smoothSolver:  Solving for Uy, Initial residual = 0.0113401, Final residual = 0.00103401, No Iterations 8
GAMG:  Solving for p, Initial residual = 0.0169877, Final residual = 0.000151805, No Iterations 16
time step continuity errors : sum local = 4.29157e-05, global = -1.84396e-05, cumulative = 0.000797373
smoothSolver:  Solving for omega, Initial residual = 0.000220815, Final residual = 1.24007e-05, No Iterations 3
smoothSolver:  Solving for k, Initial residual = 0.000711398, Final residual = 3.78575e-05, No Iterations 3
ExecutionTime = 3.49 s  ClockTime = 5 s

forceCoeffs forceCoeffs_object write:
    Cm    = -0.210425
    Cd    = 1.14044
    Cl    = -0.341484
    Cl(f) = -0.381167
    Cl(r) = 0.0396835

Time = 129

smoothSolver:  Solving for Ux, Initial residual = 0.00660755, Final residual = 0.000582282, No Iterations 8
smoothSolver:  Solving for Uy, Initial residual = 0.0109994, Final residual = 0.0010234, No Iterations 8
GAMG:  Solving for p, Initial residual = 0.0158427, Final residual = 0.000135391, No Iterations 17
time step continuity errors : sum local = 3.98651e-05, global = 1.64559e-05, cumulative = 0.000813829
smoothSolver:  Solving for omega, Initial residual = 0.000220638, Final residual = 1.20802e-05, No Iterations 3
smoothSolver:  Solving for k, Initial residual = 0.000668643, Final residual = 3.66766e-05, No Iterations 3
ExecutionTime = 3.51 s  ClockTime = 5 s

forceCoeffs forceCoeffs_object write:
    Cm    = -0.215096
    Cd    = 1.12274
    Cl    = -0.333452
    Cl(f) = -0.381822
    Cl(r) = 0.04837

Time = 130

smoothSolver:  Solving for Ux, Initial residual = 0.00628887, Final residual = 0.00058187, No Iterations 8
smoothSolver:  Solving for Uy, Initial residual = 0.0108694, Final residual = 0.00102659, No Iterations 8
GAMG:  Solving for p, Initial residual = 0.014564, Final residual = 0.000130308, No Iterations 17
time step continuity errors : sum local = 4.06904e-05, global = 1.65571e-05, cumulative = 0.000830386
smoothSolver:  Solving for omega, Initial residual = 0.000222082, Final residual = 1.17074e-05, No Iterations 3
smoothSolver:  Solving for k, Initial residual = 0.000630881, Final residual = 3.54189e-05, No Iterations 3
ExecutionTime = 3.54 s  ClockTime = 5 s

forceCoeffs forceCoeffs_object write:
    Cm    = -0.209628
    Cd    = 1.08711
    Cl    = -0.320722
    Cl(f) = -0.369989
    Cl(r) = 0.0492672

Time = 131

smoothSolver:  Solving for Ux, Initial residual = 0.00606384, Final residual = 0.000593481, No Iterations 8
smoothSolver:  Solving for Uy, Initial residual = 0.0110175, Final residual = 0.00105663, No Iterations 8
GAMG:  Solving for p, Initial residual = 0.0131742, Final residual = 0.000122052, No Iterations 17
time step continuity errors : sum local = 4.12048e-05, global = 1.60742e-05, cumulative = 0.00084646
smoothSolver:  Solving for omega, Initial residual = 0.000226003, Final residual = 1.17621e-05, No Iterations 3
smoothSolver:  Solving for k, Initial residual = 0.000609531, Final residual = 3.39679e-05, No Iterations 3
ExecutionTime = 3.57 s  ClockTime = 5 s

forceCoeffs forceCoeffs_object write:
    Cm    = -0.192748
    Cd    = 1.03347
    Cl    = -0.303536
    Cl(f) = -0.344516
    Cl(r) = 0.0409803

Time = 132

smoothSolver:  Solving for Ux, Initial residual = 0.00588033, Final residual = 0.000512497, No Iterations 9
smoothSolver:  Solving for Uy, Initial residual = 0.011459, Final residual = 0.00112277, No Iterations 8
GAMG:  Solving for p, Initial residual = 0.0117467, Final residual = 0.000110691, No Iterations 17
time step continuity errors : sum local = 4.07917e-05, global = 1.55764e-05, cumulative = 0.000862036
smoothSolver:  Solving for omega, Initial residual = 0.000228547, Final residual = 1.21665e-05, No Iterations 3
smoothSolver:  Solving for k, Initial residual = 0.00059854, Final residual = 3.25789e-05, No Iterations 3
ExecutionTime = 3.59 s  ClockTime = 5 s

forceCoeffs forceCoeffs_object write:
    Cm    = -0.162778
    Cd    = 0.961077
    Cl    = -0.282243
    Cl(f) = -0.3039
    Cl(r) = 0.0216563

Time = 133

smoothSolver:  Solving for Ux, Initial residual = 0.00573507, Final residual = 0.00051845, No Iterations 9
smoothSolver:  Solving for Uy, Initial residual = 0.0122663, Final residual = 0.00105772, No Iterations 9
GAMG:  Solving for p, Initial residual = 0.0104106, Final residual = 9.55977e-05, No Iterations 17
time step continuity errors : sum local = 3.82851e-05, global = 1.46262e-05, cumulative = 0.000876663
smoothSolver:  Solving for omega, Initial residual = 0.000231236, Final residual = 1.18771e-05, No Iterations 3
smoothSolver:  Solving for k, Initial residual = 0.000581833, Final residual = 3.1106e-05, No Iterations 3
ExecutionTime = 3.62 s  ClockTime = 5 s

forceCoeffs forceCoeffs_object write:
    Cm    = -0.12177
    Cd    = 0.874071
    Cl    = -0.257839
    Cl(f) = -0.250689
    Cl(r) = -0.00714957

Time = 134

smoothSolver:  Solving for Ux, Initial residual = 0.0056481, Final residual = 0.000519615, No Iterations 9
smoothSolver:  Solving for Uy, Initial residual = 0.013514, Final residual = 0.00121922, No Iterations 9
GAMG:  Solving for p, Initial residual = 0.00923505, Final residual = 8.97163e-05, No Iterations 16
time step continuity errors : sum local = 3.8646e-05, global = -1.6149e-05, cumulative = 0.000860513
smoothSolver:  Solving for omega, Initial residual = 0.000234496, Final residual = 1.18421e-05, No Iterations 3
smoothSolver:  Solving for k, Initial residual = 0.000572255, Final residual = 2.94119e-05, No Iterations 3
ExecutionTime = 3.65 s  ClockTime = 5 s


SIMPLE solution converged in 134 iterations

forceCoeffs forceCoeffs_object write:
    Cm    = -0.0737425
    Cd    = 0.780546
    Cl    = -0.232674
    Cl(f) = -0.190079
    Cl(r) = -0.0425944

yPlus yPlus write:
    writing object yPlus
    patch suction_side y+ : min = 11.5374, max = 48.0804, average = 29.999
    patch pressure_side y+ : min = 4.4051, max = 54.049, average = 28.8565
    patch trailing_edge y+ : min = 127.515, max = 163.8, average = 145.657

End

