/*---------------------------------------------------------------------------*\
  =========                 |
  \\      /  F ield         | OpenFOAM: The Open Source CFD Toolbox
   \\    /   O peration     | Website:  https://openfoam.org
    \\  /    A nd           | Version:  7
     \\/     M anipulation  |
\*---------------------------------------------------------------------------*/
Build  : 7-3bcbaf946ae9
Exec   : simpleFoam
Date   : Jun 19 2022
Time   : 15:00:38
Host   : "Lubuntu"
PID    : 6500
I/O    : uncollated
Case   : /home/ensm_student/Documents/CFD/Rechnerubung/Week6/turbulent_channel_periodic
nProcs : 1
sigFpe : Enabling floating point exception trapping (FOAM_SIGFPE).
fileModificationChecking : Monitoring run-time modified files using timeStampMaster (fileModificationSkew 10)
allowSystemOperations : Allowing user-supplied system call operations

// * * * * * * * * * * * * * * * * * * * * * * * * * * * * * * * * * * * * * //
Create time

Create mesh for time = 0


SIMPLE: Convergence criteria found
        p: tolerance 0.01
        U: tolerance 0.001
        "(k|omega)": tolerance 0.001

Reading field p

Reading field U

Reading/calculating face flux field phi

Selecting incompressible transport model Newtonian
Selecting turbulence model type RAS
Selecting RAS turbulence model kOmegaSST
Selecting patchDistMethod meshWave
RAS
{
    RASModel        kOmegaSST;
    turbulence      on;
    printCoeffs     on;
    alphaK1         0.85;
    alphaK2         1;
    alphaOmega1     0.5;
    alphaOmega2     0.856;
    gamma1          0.555556;
    gamma2          0.44;
    beta1           0.075;
    beta2           0.0828;
    betaStar        0.09;
    a1              0.31;
    b1              1;
    c1              10;
    F3              false;
}

No MRF models present

Creating finite volume options from "system/fvOptions"

Selecting finite volume options model type meanVelocityForce
    Source: momentumSource
    - selecting all cells
    - selected 180 cell(s) with volume 0.1
    Initial pressure gradient = 0


Starting time loop

turbulenceFields stressComponents: storing fields:
    "devReff"

Reading set description:
    x

Time = 1

smoothSolver:  Solving for Ux, Initial residual = 0, Final residual = 0, No Iterations 0
smoothSolver:  Solving for Uy, Initial residual = 0, Final residual = 0, No Iterations 0
Pressure gradient source: uncorrected Ubar = 0, pressure gradient = 5784.7
GAMG:  Solving for p, Initial residual = 0, Final residual = 0, No Iterations 0
time step continuity errors : sum local = 0, global = 0, cumulative = 0
Pressure gradient source: uncorrected Ubar = 1.6485, pressure gradient = 630.059
smoothSolver:  Solving for omega, Initial residual = 0.242686, Final residual = 0.0164844, No Iterations 3
smoothSolver:  Solving for k, Initial residual = 1, Final residual = 0.0983768, No Iterations 4
ExecutionTime = 0.01 s  ClockTime = 0 s

Time = 2

smoothSolver:  Solving for Ux, Initial residual = 0.990464, Final residual = 0.0876227, No Iterations 6
smoothSolver:  Solving for Uy, Initial residual = 1.26224e-09, Final residual = 1.26224e-09, No Iterations 0
Pressure gradient source: uncorrected Ubar = 5.07754, pressure gradient = -3258.3
GAMG:  Solving for p, Initial residual = 0.998412, Final residual = 0.0985213, No Iterations 112
time step continuity errors : sum local = 0, global = 0, cumulative = 0
Pressure gradient source: uncorrected Ubar = 2.71435, pressure gradient = -411.256
smoothSolver:  Solving for omega, Initial residual = 0.73189, Final residual = 0.0442188, No Iterations 2
smoothSolver:  Solving for k, Initial residual = 0.670979, Final residual = 0.0263394, No Iterations 1
ExecutionTime = 0.01 s  ClockTime = 0 s

Time = 3

smoothSolver:  Solving for Ux, Initial residual = 0.872496, Final residual = 0.0763251, No Iterations 6
smoothSolver:  Solving for Uy, Initial residual = 0.408268, Final residual = 0.0400121, No Iterations 5
Pressure gradient source: uncorrected Ubar = -4.76005, pressure gradient = 2179.65
GAMG:  Solving for p, Initial residual = 0.00486085, Final residual = 0.000479206, No Iterations 17
time step continuity errors : sum local = 7.00666e-17, global = 1.99222e-17, cumulative = 1.99222e-17
Pressure gradient source: uncorrected Ubar = 0.629527, pressure gradient = 67.1251
smoothSolver:  Solving for omega, Initial residual = 0.782084, Final residual = 0.00316139, No Iterations 1
smoothSolver:  Solving for k, Initial residual = 0.385117, Final residual = 0.019431, No Iterations 1
ExecutionTime = 0.02 s  ClockTime = 0 s

Time = 4

smoothSolver:  Solving for Ux, Initial residual = 0.509246, Final residual = 0.0364561, No Iterations 6
smoothSolver:  Solving for Uy, Initial residual = 0.314397, Final residual = 0.0228001, No Iterations 6
Pressure gradient source: uncorrected Ubar = 2.72452, pressure gradient = -285.528
GAMG:  Solving for p, Initial residual = 0.00595672, Final residual = 0.000593141, No Iterations 60
time step continuity errors : sum local = 6.28837e-17, global = -2.1684e-18, cumulative = 1.77538e-17
Pressure gradient source: uncorrected Ubar = 2.01782, pressure gradient = -0.548862
smoothSolver:  Solving for omega, Initial residual = 0.599172, Final residual = 0.00630536, No Iterations 1
smoothSolver:  Solving for k, Initial residual = 0.289602, Final residual = 0.0234277, No Iterations 1
ExecutionTime = 0.02 s  ClockTime = 0 s

Time = 5

smoothSolver:  Solving for Ux, Initial residual = 0.110936, Final residual = 0.00833902, No Iterations 3
smoothSolver:  Solving for Uy, Initial residual = 0.634421, Final residual = 0.0570539, No Iterations 5
Pressure gradient source: uncorrected Ubar = 1.75753, pressure gradient = 60.9799
GAMG:  Solving for p, Initial residual = 0.012801, Final residual = 0.00126083, No Iterations 4
time step continuity errors : sum local = 6.30193e-17, global = 4.20128e-18, cumulative = 2.19551e-17
Pressure gradient source: uncorrected Ubar = 1.8297, pressure gradient = 12.96
smoothSolver:  Solving for omega, Initial residual = 0.131363, Final residual = 0.00641532, No Iterations 2
smoothSolver:  Solving for k, Initial residual = 0.218326, Final residual = 0.00832745, No Iterations 2
ExecutionTime = 0.02 s  ClockTime = 0 s

Time = 6

smoothSolver:  Solving for Ux, Initial residual = 0.110818, Final residual = 0.00844022, No Iterations 5
smoothSolver:  Solving for Uy, Initial residual = 0.432656, Final residual = 0.0315746, No Iterations 5
Pressure gradient source: uncorrected Ubar = 1.8834, pressure gradient = -14.1573
GAMG:  Solving for p, Initial residual = 0.0109473, Final residual = 0.00105228, No Iterations 188
time step continuity errors : sum local = 8.35513e-17, global = 1.01644e-18, cumulative = 2.29715e-17
Pressure gradient source: uncorrected Ubar = 1.85633, pressure gradient = 7.82148
smoothSolver:  Solving for omega, Initial residual = 0.145582, Final residual = 0.00700811, No Iterations 2
smoothSolver:  Solving for k, Initial residual = 0.143502, Final residual = 0.0104403, No Iterations 2
ExecutionTime = 0.03 s  ClockTime = 0 s

Time = 7

smoothSolver:  Solving for Ux, Initial residual = 0.0653557, Final residual = 0.00621675, No Iterations 4
smoothSolver:  Solving for Uy, Initial residual = 0.387478, Final residual = 0.0277882, No Iterations 6
Pressure gradient source: uncorrected Ubar = 1.83689, pressure gradient = 20.1219
GAMG:  Solving for p, Initial residual = 0.00284834, Final residual = 0.000251263, No Iterations 6
time step continuity errors : sum local = 9.77137e-17, global = -1.0842e-17, cumulative = 1.21295e-17
Pressure gradient source: uncorrected Ubar = 1.84759, pressure gradient = 10.0831
smoothSolver:  Solving for omega, Initial residual = 0.0998913, Final residual = 0.00922878, No Iterations 2
smoothSolver:  Solving for k, Initial residual = 0.145748, Final residual = 0.00684006, No Iterations 3
ExecutionTime = 0.03 s  ClockTime = 0 s

Time = 8

smoothSolver:  Solving for Ux, Initial residual = 0.0557388, Final residual = 0.0038512, No Iterations 5
smoothSolver:  Solving for Uy, Initial residual = 0.465754, Final residual = 0.0379075, No Iterations 5
Pressure gradient source: uncorrected Ubar = 1.85953, pressure gradient = 0.0416164
GAMG:  Solving for p, Initial residual = 0.00318101, Final residual = 0.000259446, No Iterations 7
time step continuity errors : sum local = 9.22249e-17, global = -1.01644e-18, cumulative = 1.11131e-17
Pressure gradient source: uncorrected Ubar = 1.85191, pressure gradient = 8.07548
smoothSolver:  Solving for omega, Initial residual = 0.0799921, Final residual = 0.00685524, No Iterations 3
smoothSolver:  Solving for k, Initial residual = 0.0919587, Final residual = 0.00762064, No Iterations 3
ExecutionTime = 0.03 s  ClockTime = 0 s

Time = 9

smoothSolver:  Solving for Ux, Initial residual = 0.0400112, Final residual = 0.00272014, No Iterations 5
smoothSolver:  Solving for Uy, Initial residual = 0.423278, Final residual = 0.0287439, No Iterations 5
Pressure gradient source: uncorrected Ubar = 1.84489, pressure gradient = 13.9701
GAMG:  Solving for p, Initial residual = 0.00400471, Final residual = 0.000383827, No Iterations 37
time step continuity errors : sum local = 1.13028e-16, global = 1.89735e-18, cumulative = 1.30104e-17
Pressure gradient source: uncorrected Ubar = 1.84914, pressure gradient = 9.06462
smoothSolver:  Solving for omega, Initial residual = 0.0764904, Final residual = 0.00662043, No Iterations 3
smoothSolver:  Solving for k, Initial residual = 0.0745834, Final residual = 0.00411186, No Iterations 4
ExecutionTime = 0.03 s  ClockTime = 0 s

Time = 10

smoothSolver:  Solving for Ux, Initial residual = 0.0339369, Final residual = 0.00245604, No Iterations 5
smoothSolver:  Solving for Uy, Initial residual = 0.321158, Final residual = 0.0211531, No Iterations 5
Pressure gradient source: uncorrected Ubar = 1.85306, pressure gradient = 5.98712
GAMG:  Solving for p, Initial residual = 0.00731228, Final residual = 0.000714435, No Iterations 168
time step continuity errors : sum local = 1.3932e-16, global = 5.42101e-19, cumulative = 1.35525e-17
Pressure gradient source: uncorrected Ubar = 1.85068, pressure gradient = 8.37885
smoothSolver:  Solving for omega, Initial residual = 0.101942, Final residual = 0.00678248, No Iterations 3
smoothSolver:  Solving for k, Initial residual = 0.0560977, Final residual = 0.00396223, No Iterations 4
ExecutionTime = 0.03 s  ClockTime = 0 s

Time = 11

smoothSolver:  Solving for Ux, Initial residual = 0.0287125, Final residual = 0.00205021, No Iterations 5
smoothSolver:  Solving for Uy, Initial residual = 0.452759, Final residual = 0.0368869, No Iterations 5
Pressure gradient source: uncorrected Ubar = 1.85377, pressure gradient = 4.71351
GAMG:  Solving for p, Initial residual = 0.00108253, Final residual = 9.35668e-05, No Iterations 196
time step continuity errors : sum local = 1.15061e-16, global = -2.03288e-18, cumulative = 1.15196e-17
Pressure gradient source: uncorrected Ubar = 1.85081, pressure gradient = 7.59275
smoothSolver:  Solving for omega, Initial residual = 0.100168, Final residual = 0.00740034, No Iterations 3
smoothSolver:  Solving for k, Initial residual = 0.04289, Final residual = 0.00357413, No Iterations 4
ExecutionTime = 0.04 s  ClockTime = 0 s

Time = 12

smoothSolver:  Solving for Ux, Initial residual = 0.0246732, Final residual = 0.00175408, No Iterations 5
smoothSolver:  Solving for Uy, Initial residual = 0.598563, Final residual = 0.0446934, No Iterations 6
Pressure gradient source: uncorrected Ubar = 1.85369, pressure gradient = 4.22545
GAMG:  Solving for p, Initial residual = 0.0755553, Final residual = 0.00553896, No Iterations 7
time step continuity errors : sum local = 9.02598e-17, global = -5.42101e-18, cumulative = 6.09864e-18
Pressure gradient source: uncorrected Ubar = 1.85079, pressure gradient = 6.86948
smoothSolver:  Solving for omega, Initial residual = 0.102226, Final residual = 0.00745724, No Iterations 3
smoothSolver:  Solving for k, Initial residual = 0.0344281, Final residual = 0.00311774, No Iterations 4
ExecutionTime = 0.04 s  ClockTime = 0 s

Time = 13

smoothSolver:  Solving for Ux, Initial residual = 0.0217777, Final residual = 0.00152794, No Iterations 5
smoothSolver:  Solving for Uy, Initial residual = 0.447343, Final residual = 0.0314913, No Iterations 6
Pressure gradient source: uncorrected Ubar = 1.85349, pressure gradient = 3.73584
GAMG:  Solving for p, Initial residual = 0.00822617, Final residual = 0.000714736, No Iterations 4
time step continuity errors : sum local = 1.77267e-16, global = 3.79471e-18, cumulative = 9.89334e-18
Pressure gradient source: uncorrected Ubar = 1.85072, pressure gradient = 6.22434
smoothSolver:  Solving for omega, Initial residual = 0.0891287, Final residual = 0.00779065, No Iterations 3
smoothSolver:  Solving for k, Initial residual = 0.0282049, Final residual = 0.00268047, No Iterations 4
ExecutionTime = 0.04 s  ClockTime = 0 s

Time = 14

smoothSolver:  Solving for Ux, Initial residual = 0.0193324, Final residual = 0.00135769, No Iterations 5
smoothSolver:  Solving for Uy, Initial residual = 0.377124, Final residual = 0.033354, No Iterations 4
Pressure gradient source: uncorrected Ubar = 1.85228, pressure gradient = 4.1665
GAMG:  Solving for p, Initial residual = 0.0156028, Final residual = 0.00150719, No Iterations 6
time step continuity errors : sum local = 1.17094e-16, global = 0, cumulative = 9.89334e-18
Pressure gradient source: uncorrected Ubar = 1.85046, pressure gradient = 5.81171
smoothSolver:  Solving for omega, Initial residual = 0.0728954, Final residual = 0.00481741, No Iterations 4
smoothSolver:  Solving for k, Initial residual = 0.024587, Final residual = 0.00237414, No Iterations 4
ExecutionTime = 0.04 s  ClockTime = 0 s

Time = 15

smoothSolver:  Solving for Ux, Initial residual = 0.0175016, Final residual = 0.00123205, No Iterations 5
smoothSolver:  Solving for Uy, Initial residual = 0.419322, Final residual = 0.0335483, No Iterations 5
Pressure gradient source: uncorrected Ubar = 1.85194, pressure gradient = 4.07135
GAMG:  Solving for p, Initial residual = 0.0246731, Final residual = 0.0021145, No Iterations 19
time step continuity errors : sum local = 1.63172e-16, global = -4.87891e-18, cumulative = 5.01444e-18
Pressure gradient source: uncorrected Ubar = 1.85038, pressure gradient = 5.4712
smoothSolver:  Solving for omega, Initial residual = 0.0617568, Final residual = 0.0047491, No Iterations 4
smoothSolver:  Solving for k, Initial residual = 0.0220421, Final residual = 0.00217596, No Iterations 4
ExecutionTime = 0.05 s  ClockTime = 0 s

Time = 16

smoothSolver:  Solving for Ux, Initial residual = 0.0160213, Final residual = 0.00113266, No Iterations 5
smoothSolver:  Solving for Uy, Initial residual = 0.521928, Final residual = 0.0504117, No Iterations 4
Pressure gradient source: uncorrected Ubar = 1.85186, pressure gradient = 3.76203
GAMG:  Solving for p, Initial residual = 0.0285908, Final residual = 0.00273081, No Iterations 4
time step continuity errors : sum local = 1.27394e-16, global = -5.96311e-18, cumulative = -9.48677e-19
Pressure gradient source: uncorrected Ubar = 1.85035, pressure gradient = 5.14737
smoothSolver:  Solving for omega, Initial residual = 0.0513932, Final residual = 0.00469415, No Iterations 4
smoothSolver:  Solving for k, Initial residual = 0.0200782, Final residual = 0.00124426, No Iterations 5
ExecutionTime = 0.05 s  ClockTime = 0 s

Time = 17

smoothSolver:  Solving for Ux, Initial residual = 0.0147482, Final residual = 0.00104515, No Iterations 5
smoothSolver:  Solving for Uy, Initial residual = 0.371135, Final residual = 0.0259051, No Iterations 4
Pressure gradient source: uncorrected Ubar = 1.85152, pressure gradient = 3.71179
GAMG:  Solving for p, Initial residual = 0.0251685, Final residual = 0.00243539, No Iterations 11
time step continuity errors : sum local = 1.24819e-16, global = -1.35525e-19, cumulative = -1.0842e-18
Pressure gradient source: uncorrected Ubar = 1.85028, pressure gradient = 4.88652
smoothSolver:  Solving for omega, Initial residual = 0.0440085, Final residual = 0.0029254, No Iterations 5
smoothSolver:  Solving for k, Initial residual = 0.0184821, Final residual = 0.00121901, No Iterations 5
ExecutionTime = 0.05 s  ClockTime = 0 s

Time = 18

smoothSolver:  Solving for Ux, Initial residual = 0.0137199, Final residual = 0.000976568, No Iterations 5
smoothSolver:  Solving for Uy, Initial residual = 0.42894, Final residual = 0.0372181, No Iterations 5
Pressure gradient source: uncorrected Ubar = 1.85124, pressure gradient = 3.67324
GAMG:  Solving for p, Initial residual = 0.0223364, Final residual = 0.00211167, No Iterations 4
time step continuity errors : sum local = 1.03338e-16, global = -3.04932e-18, cumulative = -4.13352e-18
Pressure gradient source: uncorrected Ubar = 1.85022, pressure gradient = 4.67561
smoothSolver:  Solving for omega, Initial residual = 0.0383195, Final residual = 0.00286277, No Iterations 5
smoothSolver:  Solving for k, Initial residual = 0.0172924, Final residual = 0.00120174, No Iterations 5
ExecutionTime = 0.05 s  ClockTime = 0 s

Time = 19

smoothSolver:  Solving for Ux, Initial residual = 0.012829, Final residual = 0.000916974, No Iterations 5
smoothSolver:  Solving for Uy, Initial residual = 0.435198, Final residual = 0.0413952, No Iterations 4
Pressure gradient source: uncorrected Ubar = 1.85108, pressure gradient = 3.59238
GAMG:  Solving for p, Initial residual = 0.0191869, Final residual = 0.00163738, No Iterations 4
time step continuity errors : sum local = 1.49349e-16, global = -2.98156e-18, cumulative = -7.11508e-18
Pressure gradient source: uncorrected Ubar = 1.85018, pressure gradient = 4.4947
smoothSolver:  Solving for omega, Initial residual = 0.0352508, Final residual = 0.00280441, No Iterations 5
smoothSolver:  Solving for k, Initial residual = 0.0163147, Final residual = 0.00118693, No Iterations 5
ExecutionTime = 0.05 s  ClockTime = 0 s

Time = 20

smoothSolver:  Solving for Ux, Initial residual = 0.0120493, Final residual = 0.000867991, No Iterations 5
smoothSolver:  Solving for Uy, Initial residual = 0.420708, Final residual = 0.0276398, No Iterations 5
Pressure gradient source: uncorrected Ubar = 1.85098, pressure gradient = 3.48852
GAMG:  Solving for p, Initial residual = 0.0245787, Final residual = 0.00163379, No Iterations 5
time step continuity errors : sum local = 1.17636e-16, global = 2.71051e-18, cumulative = -4.40457e-18
Pressure gradient source: uncorrected Ubar = 1.85016, pressure gradient = 4.32893
smoothSolver:  Solving for omega, Initial residual = 0.0338143, Final residual = 0.00275562, No Iterations 5
smoothSolver:  Solving for k, Initial residual = 0.0155102, Final residual = 0.00117249, No Iterations 5
ExecutionTime = 0.05 s  ClockTime = 0 s

Time = 21

smoothSolver:  Solving for Ux, Initial residual = 0.0113966, Final residual = 0.000824755, No Iterations 5
smoothSolver:  Solving for Uy, Initial residual = 0.463922, Final residual = 0.0343953, No Iterations 5
Pressure gradient source: uncorrected Ubar = 1.85087, pressure gradient = 3.41563
GAMG:  Solving for p, Initial residual = 0.0159397, Final residual = 0.00154222, No Iterations 5
time step continuity errors : sum local = 1.37829e-16, global = -9.48677e-19, cumulative = -5.35325e-18
Pressure gradient source: uncorrected Ubar = 1.85014, pressure gradient = 4.18141
smoothSolver:  Solving for omega, Initial residual = 0.0333196, Final residual = 0.00271542, No Iterations 5
smoothSolver:  Solving for k, Initial residual = 0.0148411, Final residual = 0.00115953, No Iterations 5
ExecutionTime = 0.05 s  ClockTime = 0 s

Time = 22

smoothSolver:  Solving for Ux, Initial residual = 0.0108067, Final residual = 0.000785523, No Iterations 5
smoothSolver:  Solving for Uy, Initial residual = 0.396538, Final residual = 0.0363532, No Iterations 4
Pressure gradient source: uncorrected Ubar = 1.85081, pressure gradient = 3.31546
GAMG:  Solving for p, Initial residual = 0.024917, Final residual = 0.00190086, No Iterations 4
time step continuity errors : sum local = 7.45389e-17, global = -8.13152e-19, cumulative = -6.1664e-18
Pressure gradient source: uncorrected Ubar = 1.85013, pressure gradient = 4.03977
smoothSolver:  Solving for omega, Initial residual = 0.033316, Final residual = 0.00268367, No Iterations 5
smoothSolver:  Solving for k, Initial residual = 0.014324, Final residual = 0.00115126, No Iterations 5
ExecutionTime = 0.06 s  ClockTime = 0 s

Time = 23

smoothSolver:  Solving for Ux, Initial residual = 0.0102695, Final residual = 0.000752058, No Iterations 5
smoothSolver:  Solving for Uy, Initial residual = 0.394938, Final residual = 0.0392193, No Iterations 3
Pressure gradient source: uncorrected Ubar = 1.85078, pressure gradient = 3.2051
GAMG:  Solving for p, Initial residual = 0.0154626, Final residual = 0.00149228, No Iterations 24
time step continuity errors : sum local = 6.61363e-17, global = 3.25261e-18, cumulative = -2.91379e-18
Pressure gradient source: uncorrected Ubar = 1.85013, pressure gradient = 3.90368
smoothSolver:  Solving for omega, Initial residual = 0.0335523, Final residual = 0.0026631, No Iterations 5
smoothSolver:  Solving for k, Initial residual = 0.013861, Final residual = 0.00114122, No Iterations 5
ExecutionTime = 0.06 s  ClockTime = 0 s

Time = 24

smoothSolver:  Solving for Ux, Initial residual = 0.00980833, Final residual = 0.000721467, No Iterations 5
smoothSolver:  Solving for Uy, Initial residual = 0.362925, Final residual = 0.0286841, No Iterations 5
Pressure gradient source: uncorrected Ubar = 1.85073, pressure gradient = 3.11439
GAMG:  Solving for p, Initial residual = 0.0170073, Final residual = 0.00166346, No Iterations 114
time step continuity errors : sum local = 8.21283e-17, global = -2.71051e-18, cumulative = -5.6243e-18
Pressure gradient source: uncorrected Ubar = 1.85012, pressure gradient = 3.77318
smoothSolver:  Solving for omega, Initial residual = 0.0337002, Final residual = 0.00264859, No Iterations 5
smoothSolver:  Solving for k, Initial residual = 0.0134473, Final residual = 0.00113447, No Iterations 5
ExecutionTime = 0.06 s  ClockTime = 0 s

Time = 25

smoothSolver:  Solving for Ux, Initial residual = 0.00938063, Final residual = 0.000692357, No Iterations 5
smoothSolver:  Solving for Uy, Initial residual = 0.374077, Final residual = 0.0326792, No Iterations 5
Pressure gradient source: uncorrected Ubar = 1.85072, pressure gradient = 3.00141
GAMG:  Solving for p, Initial residual = 0.0051183, Final residual = 0.000481091, No Iterations 46
time step continuity errors : sum local = 1.13028e-16, global = 1.0842e-18, cumulative = -4.5401e-18
Pressure gradient source: uncorrected Ubar = 1.85012, pressure gradient = 3.64654
smoothSolver:  Solving for omega, Initial residual = 0.0335852, Final residual = 0.00264404, No Iterations 5
smoothSolver:  Solving for k, Initial residual = 0.0130611, Final residual = 0.00112774, No Iterations 5
ExecutionTime = 0.06 s  ClockTime = 0 s

Time = 26

smoothSolver:  Solving for Ux, Initial residual = 0.00898133, Final residual = 0.000666874, No Iterations 5
smoothSolver:  Solving for Uy, Initial residual = 0.393289, Final residual = 0.0282052, No Iterations 5
Pressure gradient source: uncorrected Ubar = 1.85067, pressure gradient = 2.92594
GAMG:  Solving for p, Initial residual = 0.00503855, Final residual = 0.000502515, No Iterations 33
time step continuity errors : sum local = 8.5652e-17, global = -5.42101e-19, cumulative = -5.0822e-18
Pressure gradient source: uncorrected Ubar = 1.85011, pressure gradient = 3.52806
smoothSolver:  Solving for omega, Initial residual = 0.0332212, Final residual = 0.00264316, No Iterations 5
smoothSolver:  Solving for k, Initial residual = 0.0127189, Final residual = 0.00112134, No Iterations 5
ExecutionTime = 0.07 s  ClockTime = 0 s

Time = 27

smoothSolver:  Solving for Ux, Initial residual = 0.00862269, Final residual = 0.000643277, No Iterations 5
smoothSolver:  Solving for Uy, Initial residual = 0.342204, Final residual = 0.026758, No Iterations 4
Pressure gradient source: uncorrected Ubar = 1.85063, pressure gradient = 2.84874
GAMG:  Solving for p, Initial residual = 0.00356861, Final residual = 0.000299753, No Iterations 4
time step continuity errors : sum local = 8.079e-17, global = 2.72745e-18, cumulative = -2.35475e-18
Pressure gradient source: uncorrected Ubar = 1.8501, pressure gradient = 3.41849
smoothSolver:  Solving for omega, Initial residual = 0.0327704, Final residual = 0.00264777, No Iterations 5
smoothSolver:  Solving for k, Initial residual = 0.0124162, Final residual = 0.00111694, No Iterations 5
ExecutionTime = 0.07 s  ClockTime = 0 s

Time = 28

smoothSolver:  Solving for Ux, Initial residual = 0.00829404, Final residual = 0.000620985, No Iterations 5
smoothSolver:  Solving for Uy, Initial residual = 0.400601, Final residual = 0.0288631, No Iterations 3
Pressure gradient source: uncorrected Ubar = 1.85056, pressure gradient = 2.80215
GAMG:  Solving for p, Initial residual = 0.00261907, Final residual = 0.0002517, No Iterations 48
time step continuity errors : sum local = 8.94806e-17, global = -5.75982e-19, cumulative = -2.93073e-18
Pressure gradient source: uncorrected Ubar = 1.85009, pressure gradient = 3.31956
smoothSolver:  Solving for omega, Initial residual = 0.0323884, Final residual = 0.00265055, No Iterations 5
smoothSolver:  Solving for k, Initial residual = 0.012139, Final residual = 0.00111097, No Iterations 5
ExecutionTime = 0.07 s  ClockTime = 1 s

Time = 29

smoothSolver:  Solving for Ux, Initial residual = 0.00798662, Final residual = 0.000600222, No Iterations 5
smoothSolver:  Solving for Uy, Initial residual = 0.260577, Final residual = 0.0257848, No Iterations 4
Pressure gradient source: uncorrected Ubar = 1.85052, pressure gradient = 2.7441
GAMG:  Solving for p, Initial residual = 0.0026091, Final residual = 0.000213473, No Iterations 7
time step continuity errors : sum local = 1.18788e-16, global = -6.09864e-19, cumulative = -3.5406e-18
Pressure gradient source: uncorrected Ubar = 1.85008, pressure gradient = 3.22904
smoothSolver:  Solving for omega, Initial residual = 0.032145, Final residual = 0.00265756, No Iterations 5
smoothSolver:  Solving for k, Initial residual = 0.0119098, Final residual = 0.00110672, No Iterations 5
ExecutionTime = 0.07 s  ClockTime = 1 s

Time = 30

smoothSolver:  Solving for Ux, Initial residual = 0.00769855, Final residual = 0.000581943, No Iterations 5
smoothSolver:  Solving for Uy, Initial residual = 0.250024, Final residual = 0.0200757, No Iterations 3
Pressure gradient source: uncorrected Ubar = 1.85047, pressure gradient = 2.71342
GAMG:  Solving for p, Initial residual = 0.00421347, Final residual = 0.000407678, No Iterations 25
time step continuity errors : sum local = 1.20346e-16, global = -3.25261e-18, cumulative = -6.7932e-18
Pressure gradient source: uncorrected Ubar = 1.85007, pressure gradient = 3.14814
smoothSolver:  Solving for omega, Initial residual = 0.0319952, Final residual = 0.00265922, No Iterations 5
smoothSolver:  Solving for k, Initial residual = 0.0116747, Final residual = 0.00110075, No Iterations 5
ExecutionTime = 0.07 s  ClockTime = 1 s

Time = 31

smoothSolver:  Solving for Ux, Initial residual = 0.00743977, Final residual = 0.000564006, No Iterations 5
smoothSolver:  Solving for Uy, Initial residual = 0.355692, Final residual = 0.0337162, No Iterations 3
Pressure gradient source: uncorrected Ubar = 1.85043, pressure gradient = 2.66492
GAMG:  Solving for p, Initial residual = 0.00395935, Final residual = 0.000386645, No Iterations 31
time step continuity errors : sum local = 9.52743e-17, global = -2.84603e-18, cumulative = -9.63923e-18
Pressure gradient source: uncorrected Ubar = 1.85007, pressure gradient = 3.07369
smoothSolver:  Solving for omega, Initial residual = 0.0320058, Final residual = 0.00266593, No Iterations 5
smoothSolver:  Solving for k, Initial residual = 0.0114955, Final residual = 0.00109581, No Iterations 5
ExecutionTime = 0.07 s  ClockTime = 1 s

Time = 32

smoothSolver:  Solving for Ux, Initial residual = 0.00719252, Final residual = 0.000546664, No Iterations 5
smoothSolver:  Solving for Uy, Initial residual = 0.442022, Final residual = 0.0349748, No Iterations 3
Pressure gradient source: uncorrected Ubar = 1.85039, pressure gradient = 2.64022
GAMG:  Solving for p, Initial residual = 0.00461769, Final residual = 0.000445032, No Iterations 250
time step continuity errors : sum local = 7.18284e-17, global = 0, cumulative = -9.63923e-18
Pressure gradient source: uncorrected Ubar = 1.85006, pressure gradient = 3.00687
smoothSolver:  Solving for omega, Initial residual = 0.0320412, Final residual = 0.00266713, No Iterations 5
smoothSolver:  Solving for k, Initial residual = 0.0113012, Final residual = 0.00109028, No Iterations 5
ExecutionTime = 0.08 s  ClockTime = 1 s

Time = 33

smoothSolver:  Solving for Ux, Initial residual = 0.00695706, Final residual = 0.000530849, No Iterations 5
smoothSolver:  Solving for Uy, Initial residual = 0.399905, Final residual = 0.0277155, No Iterations 5
Pressure gradient source: uncorrected Ubar = 1.85036, pressure gradient = 2.59833
GAMG:  Solving for p, Initial residual = 0.0027046, Final residual = 0.000244939, No Iterations 6
time step continuity errors : sum local = 7.92145e-17, global = -1.15196e-18, cumulative = -1.07912e-17
Pressure gradient source: uncorrected Ubar = 1.85005, pressure gradient = 2.94511
smoothSolver:  Solving for omega, Initial residual = 0.0321342, Final residual = 0.00267128, No Iterations 5
smoothSolver:  Solving for k, Initial residual = 0.0111318, Final residual = 0.00108412, No Iterations 5
ExecutionTime = 0.08 s  ClockTime = 1 s

Time = 34

smoothSolver:  Solving for Ux, Initial residual = 0.00673742, Final residual = 0.000515959, No Iterations 5
smoothSolver:  Solving for Uy, Initial residual = 0.43964, Final residual = 0.0417928, No Iterations 3
Pressure gradient source: uncorrected Ubar = 1.85031, pressure gradient = 2.58899
GAMG:  Solving for p, Initial residual = 0.00322124, Final residual = 0.00024023, No Iterations 7
time step continuity errors : sum local = 8.3077e-17, global = 4.06576e-19, cumulative = -1.03846e-17
Pressure gradient source: uncorrected Ubar = 1.85005, pressure gradient = 2.89164
smoothSolver:  Solving for omega, Initial residual = 0.0322242, Final residual = 0.00267166, No Iterations 5
smoothSolver:  Solving for k, Initial residual = 0.0109718, Final residual = 0.00107941, No Iterations 5
ExecutionTime = 0.08 s  ClockTime = 1 s

Time = 35

smoothSolver:  Solving for Ux, Initial residual = 0.0065322, Final residual = 0.000501107, No Iterations 5
smoothSolver:  Solving for Uy, Initial residual = 0.389733, Final residual = 0.0294196, No Iterations 4
Pressure gradient source: uncorrected Ubar = 1.85028, pressure gradient = 2.56651
GAMG:  Solving for p, Initial residual = 0.003107, Final residual = 0.000297632, No Iterations 72
time step continuity errors : sum local = 1.21498e-16, global = 0, cumulative = -1.03846e-17
Pressure gradient source: uncorrected Ubar = 1.85004, pressure gradient = 2.84448
smoothSolver:  Solving for omega, Initial residual = 0.0323167, Final residual = 0.00267402, No Iterations 5
smoothSolver:  Solving for k, Initial residual = 0.0108072, Final residual = 0.00107242, No Iterations 5
ExecutionTime = 0.09 s  ClockTime = 1 s

Time = 36

smoothSolver:  Solving for Ux, Initial residual = 0.0063332, Final residual = 0.000486826, No Iterations 5
smoothSolver:  Solving for Uy, Initial residual = 0.438239, Final residual = 0.0377291, No Iterations 3
Pressure gradient source: uncorrected Ubar = 1.85024, pressure gradient = 2.56981
GAMG:  Solving for p, Initial residual = 0.00696302, Final residual = 0.000554151, No Iterations 3
time step continuity errors : sum local = 3.63377e-17, global = 1.69407e-20, cumulative = -1.03677e-17
Pressure gradient source: uncorrected Ubar = 1.85003, pressure gradient = 2.80548
smoothSolver:  Solving for omega, Initial residual = 0.0324088, Final residual = 0.00267325, No Iterations 5
smoothSolver:  Solving for k, Initial residual = 0.0106782, Final residual = 0.000693706, No Iterations 6
ExecutionTime = 0.09 s  ClockTime = 1 s

Time = 37

smoothSolver:  Solving for Ux, Initial residual = 0.006141, Final residual = 0.00047357, No Iterations 5
smoothSolver:  Solving for Uy, Initial residual = 0.377402, Final residual = 0.0244568, No Iterations 3
Pressure gradient source: uncorrected Ubar = 1.85021, pressure gradient = 2.55585
GAMG:  Solving for p, Initial residual = 0.0050508, Final residual = 0.000503271, No Iterations 203
time step continuity errors : sum local = 8.83646e-17, global = -5.39984e-19, cumulative = -1.09077e-17
Pressure gradient source: uncorrected Ubar = 1.85003, pressure gradient = 2.77183
smoothSolver:  Solving for omega, Initial residual = 0.032511, Final residual = 0.00267668, No Iterations 5
smoothSolver:  Solving for k, Initial residual = 0.0105229, Final residual = 0.00068988, No Iterations 6
ExecutionTime = 0.09 s  ClockTime = 1 s

Time = 38

smoothSolver:  Solving for Ux, Initial residual = 0.00596306, Final residual = 0.000460803, No Iterations 5
smoothSolver:  Solving for Uy, Initial residual = 0.411315, Final residual = 0.0330733, No Iterations 4
Pressure gradient source: uncorrected Ubar = 1.85017, pressure gradient = 2.56554
GAMG:  Solving for p, Initial residual = 0.00219775, Final residual = 0.000206897, No Iterations 6
time step continuity errors : sum local = 7.5081e-17, global = 2.98156e-18, cumulative = -7.92611e-18
Pressure gradient source: uncorrected Ubar = 1.85002, pressure gradient = 2.74523
smoothSolver:  Solving for omega, Initial residual = 0.0325672, Final residual = 0.00267317, No Iterations 5
smoothSolver:  Solving for k, Initial residual = 0.0103866, Final residual = 0.000686322, No Iterations 6
ExecutionTime = 0.09 s  ClockTime = 1 s

Time = 39

smoothSolver:  Solving for Ux, Initial residual = 0.00579234, Final residual = 0.000448135, No Iterations 5
smoothSolver:  Solving for Uy, Initial residual = 0.276464, Final residual = 0.0262044, No Iterations 5
Pressure gradient source: uncorrected Ubar = 1.85016, pressure gradient = 2.55765
GAMG:  Solving for p, Initial residual = 0.00369786, Final residual = 0.000365929, No Iterations 191
time step continuity errors : sum local = 9.92214e-17, global = 5.59042e-19, cumulative = -7.36707e-18
Pressure gradient source: uncorrected Ubar = 1.85002, pressure gradient = 2.72292
smoothSolver:  Solving for omega, Initial residual = 0.0326498, Final residual = 0.00267177, No Iterations 5
smoothSolver:  Solving for k, Initial residual = 0.0102661, Final residual = 0.000683463, No Iterations 6
ExecutionTime = 0.1 s  ClockTime = 1 s

Time = 40

smoothSolver:  Solving for Ux, Initial residual = 0.00562694, Final residual = 0.000435653, No Iterations 5
smoothSolver:  Solving for Uy, Initial residual = 0.460187, Final residual = 0.0439637, No Iterations 4
Pressure gradient source: uncorrected Ubar = 1.85012, pressure gradient = 2.57573
GAMG:  Solving for p, Initial residual = 0.00214827, Final residual = 0.000212722, No Iterations 266
time step continuity errors : sum local = 9.45966e-17, global = -8.13152e-19, cumulative = -8.18022e-18
Pressure gradient source: uncorrected Ubar = 1.85001, pressure gradient = 2.70728
smoothSolver:  Solving for omega, Initial residual = 0.0327127, Final residual = 0.00266535, No Iterations 5
smoothSolver:  Solving for k, Initial residual = 0.0101451, Final residual = 0.000679974, No Iterations 6
ExecutionTime = 0.11 s  ClockTime = 1 s

Time = 41

smoothSolver:  Solving for Ux, Initial residual = 0.00546779, Final residual = 0.000424465, No Iterations 5
smoothSolver:  Solving for Uy, Initial residual = 0.307134, Final residual = 0.027243, No Iterations 4
Pressure gradient source: uncorrected Ubar = 1.85011, pressure gradient = 2.57444
GAMG:  Solving for p, Initial residual = 0.00731083, Final residual = 0.000710096, No Iterations 13
time step continuity errors : sum local = 5.28887e-17, global = -3.04932e-19, cumulative = -8.48515e-18
Pressure gradient source: uncorrected Ubar = 1.85001, pressure gradient = 2.69518
smoothSolver:  Solving for omega, Initial residual = 0.0328351, Final residual = 0.00266416, No Iterations 5
smoothSolver:  Solving for k, Initial residual = 0.0100455, Final residual = 0.000677484, No Iterations 6
ExecutionTime = 0.11 s  ClockTime = 1 s

Time = 42

smoothSolver:  Solving for Ux, Initial residual = 0.00531963, Final residual = 0.000413252, No Iterations 5
smoothSolver:  Solving for Uy, Initial residual = 0.471924, Final residual = 0.0330664, No Iterations 4
Pressure gradient source: uncorrected Ubar = 1.85008, pressure gradient = 2.59296
GAMG:  Solving for p, Initial residual = 0.00421284, Final residual = 0.000375842, No Iterations 5
time step continuity errors : sum local = 9.62229e-18, global = -6.77626e-19, cumulative = -9.16278e-18
Pressure gradient source: uncorrected Ubar = 1.85001, pressure gradient = 2.68795
smoothSolver:  Solving for omega, Initial residual = 0.0329123, Final residual = 0.00265664, No Iterations 5
smoothSolver:  Solving for k, Initial residual = 0.00995357, Final residual = 0.000675192, No Iterations 6
ExecutionTime = 0.11 s  ClockTime = 1 s

Time = 43

smoothSolver:  Solving for Ux, Initial residual = 0.00517752, Final residual = 0.000402253, No Iterations 5
smoothSolver:  Solving for Uy, Initial residual = 0.450961, Final residual = 0.0382777, No Iterations 3
Pressure gradient source: uncorrected Ubar = 1.85008, pressure gradient = 2.58892
GAMG:  Solving for p, Initial residual = 0.00396576, Final residual = 0.000366553, No Iterations 9
time step continuity errors : sum local = 7.11508e-17, global = -6.77626e-19, cumulative = -9.84041e-18
Pressure gradient source: uncorrected Ubar = 1.85, pressure gradient = 2.68213
smoothSolver:  Solving for omega, Initial residual = 0.0330665, Final residual = 0.00265525, No Iterations 5
smoothSolver:  Solving for k, Initial residual = 0.00986296, Final residual = 0.000672584, No Iterations 6
ExecutionTime = 0.11 s  ClockTime = 1 s

Time = 44

smoothSolver:  Solving for Ux, Initial residual = 0.00503915, Final residual = 0.000391948, No Iterations 5
smoothSolver:  Solving for Uy, Initial residual = 0.209907, Final residual = 0.0175409, No Iterations 4
Pressure gradient source: uncorrected Ubar = 1.85006, pressure gradient = 2.60303
GAMG:  Solving for p, Initial residual = 0.00439123, Final residual = 0.000429806, No Iterations 349
time step continuity errors : sum local = 9.96111e-17, global = -1.0842e-18, cumulative = -1.09246e-17
Pressure gradient source: uncorrected Ubar = 1.85, pressure gradient = 2.67912
smoothSolver:  Solving for omega, Initial residual = 0.0331875, Final residual = 0.00264878, No Iterations 5
smoothSolver:  Solving for k, Initial residual = 0.00979064, Final residual = 0.000671039, No Iterations 6
ExecutionTime = 0.12 s  ClockTime = 1 s

Time = 45

smoothSolver:  Solving for Ux, Initial residual = 0.0049075, Final residual = 0.000382203, No Iterations 5
smoothSolver:  Solving for Uy, Initial residual = 0.21061, Final residual = 0.015278, No Iterations 4
Pressure gradient source: uncorrected Ubar = 1.85007, pressure gradient = 2.58997
GAMG:  Solving for p, Initial residual = 0.00258573, Final residual = 0.000249534, No Iterations 5
time step continuity errors : sum local = 8.98533e-17, global = -2.84603e-18, cumulative = -1.37706e-17
Pressure gradient source: uncorrected Ubar = 1.85, pressure gradient = 2.67494
smoothSolver:  Solving for omega, Initial residual = 0.033383, Final residual = 0.0026484, No Iterations 5
smoothSolver:  Solving for k, Initial residual = 0.00972659, Final residual = 0.000669703, No Iterations 6
ExecutionTime = 0.12 s  ClockTime = 1 s

Time = 46

smoothSolver:  Solving for Ux, Initial residual = 0.00478605, Final residual = 0.000372849, No Iterations 5
smoothSolver:  Solving for Uy, Initial residual = 0.227131, Final residual = 0.0210583, No Iterations 4
Pressure gradient source: uncorrected Ubar = 1.85006, pressure gradient = 2.60129
GAMG:  Solving for p, Initial residual = 0.00278005, Final residual = 0.000224163, No Iterations 5
time step continuity errors : sum local = 4.93312e-17, global = -1.0842e-18, cumulative = -1.48548e-17
Pressure gradient source: uncorrected Ubar = 1.85, pressure gradient = 2.67268
smoothSolver:  Solving for omega, Initial residual = 0.0335545, Final residual = 0.00264394, No Iterations 5
smoothSolver:  Solving for k, Initial residual = 0.0096644, Final residual = 0.000668253, No Iterations 6
ExecutionTime = 0.12 s  ClockTime = 1 s

Time = 47

smoothSolver:  Solving for Ux, Initial residual = 0.00466856, Final residual = 0.000363731, No Iterations 5
smoothSolver:  Solving for Uy, Initial residual = 0.400354, Final residual = 0.028949, No Iterations 5
Pressure gradient source: uncorrected Ubar = 1.85006, pressure gradient = 2.59028
GAMG:  Solving for p, Initial residual = 0.00274305, Final residual = 0.000245241, No Iterations 4
time step continuity errors : sum local = 1.02322e-16, global = -1.35525e-18, cumulative = -1.62101e-17
Pressure gradient source: uncorrected Ubar = 1.85, pressure gradient = 2.66946
smoothSolver:  Solving for omega, Initial residual = 0.033803, Final residual = 0.00264551, No Iterations 5
smoothSolver:  Solving for k, Initial residual = 0.00961213, Final residual = 0.000667341, No Iterations 6
ExecutionTime = 0.12 s  ClockTime = 1 s

Time = 48

smoothSolver:  Solving for Ux, Initial residual = 0.00455511, Final residual = 0.000355583, No Iterations 5
smoothSolver:  Solving for Uy, Initial residual = 0.40913, Final residual = 0.0305604, No Iterations 4
Pressure gradient source: uncorrected Ubar = 1.85005, pressure gradient = 2.59717
GAMG:  Solving for p, Initial residual = 0.00324299, Final residual = 0.000320107, No Iterations 96
time step continuity errors : sum local = 8.11796e-17, global = 1.35525e-18, cumulative = -1.48548e-17
Pressure gradient source: uncorrected Ubar = 1.85, pressure gradient = 2.66711
smoothSolver:  Solving for omega, Initial residual = 0.0340009, Final residual = 0.00264144, No Iterations 5
smoothSolver:  Solving for k, Initial residual = 0.00957112, Final residual = 0.000666945, No Iterations 6
ExecutionTime = 0.12 s  ClockTime = 1 s

Time = 49

smoothSolver:  Solving for Ux, Initial residual = 0.00445202, Final residual = 0.000347798, No Iterations 5
smoothSolver:  Solving for Uy, Initial residual = 0.434724, Final residual = 0.0370647, No Iterations 4
Pressure gradient source: uncorrected Ubar = 1.85006, pressure gradient = 2.58372
GAMG:  Solving for p, Initial residual = 0.00400918, Final residual = 0.000394619, No Iterations 331
time step continuity errors : sum local = 6.34258e-17, global = -5.42101e-19, cumulative = -1.53969e-17
Pressure gradient source: uncorrected Ubar = 1.85, pressure gradient = 2.66333
smoothSolver:  Solving for omega, Initial residual = 0.0342661, Final residual = 0.00264316, No Iterations 5
smoothSolver:  Solving for k, Initial residual = 0.00952937, Final residual = 0.000666279, No Iterations 6
ExecutionTime = 0.13 s  ClockTime = 1 s

Time = 50

smoothSolver:  Solving for Ux, Initial residual = 0.00435979, Final residual = 0.000340733, No Iterations 5
smoothSolver:  Solving for Uy, Initial residual = 0.389978, Final residual = 0.030965, No Iterations 5
Pressure gradient source: uncorrected Ubar = 1.85006, pressure gradient = 2.58699
GAMG:  Solving for p, Initial residual = 0.00296969, Final residual = 0.000272279, No Iterations 256
time step continuity errors : sum local = 1.21634e-16, global = -6.77626e-20, cumulative = -1.54647e-17
Pressure gradient source: uncorrected Ubar = 1.85, pressure gradient = 2.65982
smoothSolver:  Solving for omega, Initial residual = 0.0345291, Final residual = 0.00264292, No Iterations 5
smoothSolver:  Solving for k, Initial residual = 0.00948977, Final residual = 0.000665564, No Iterations 6
ExecutionTime = 0.14 s  ClockTime = 1 s

Time = 51

smoothSolver:  Solving for Ux, Initial residual = 0.0042733, Final residual = 0.000334566, No Iterations 5
smoothSolver:  Solving for Uy, Initial residual = 0.49653, Final residual = 0.0382847, No Iterations 4
Pressure gradient source: uncorrected Ubar = 1.85006, pressure gradient = 2.57494
GAMG:  Solving for p, Initial residual = 0.00446868, Final residual = 0.00030265, No Iterations 9
time step continuity errors : sum local = 4.36391e-17, global = -1.35525e-19, cumulative = -1.56002e-17
Pressure gradient source: uncorrected Ubar = 1.85, pressure gradient = 2.6554
smoothSolver:  Solving for omega, Initial residual = 0.0348714, Final residual = 0.00264856, No Iterations 5
smoothSolver:  Solving for k, Initial residual = 0.00945836, Final residual = 0.000665274, No Iterations 6
ExecutionTime = 0.14 s  ClockTime = 1 s

Time = 52

smoothSolver:  Solving for Ux, Initial residual = 0.00419111, Final residual = 0.000329118, No Iterations 5
smoothSolver:  Solving for Uy, Initial residual = 0.314202, Final residual = 0.0273567, No Iterations 4
Pressure gradient source: uncorrected Ubar = 1.85005, pressure gradient = 2.5854
GAMG:  Solving for p, Initial residual = 0.00477381, Final residual = 0.0004432, No Iterations 277
time step continuity errors : sum local = 6.1935e-17, global = -6.77626e-19, cumulative = -1.62779e-17
Pressure gradient source: uncorrected Ubar = 1.85, pressure gradient = 2.65281
smoothSolver:  Solving for omega, Initial residual = 0.035177, Final residual = 0.00264976, No Iterations 5
smoothSolver:  Solving for k, Initial residual = 0.00942828, Final residual = 0.000664821, No Iterations 6
ExecutionTime = 0.15 s  ClockTime = 1 s

Time = 53

smoothSolver:  Solving for Ux, Initial residual = 0.00411654, Final residual = 0.00032374, No Iterations 5
smoothSolver:  Solving for Uy, Initial residual = 0.422158, Final residual = 0.0308532, No Iterations 5
Pressure gradient source: uncorrected Ubar = 1.85006, pressure gradient = 2.57423
GAMG:  Solving for p, Initial residual = 0.00177549, Final residual = 0.000156684, No Iterations 303
time step continuity errors : sum local = 6.17318e-17, global = -8.80914e-19, cumulative = -1.71588e-17
Pressure gradient source: uncorrected Ubar = 1.85, pressure gradient = 2.64936
smoothSolver:  Solving for omega, Initial residual = 0.0355549, Final residual = 0.00265603, No Iterations 5
smoothSolver:  Solving for k, Initial residual = 0.00939515, Final residual = 0.000663925, No Iterations 6
ExecutionTime = 0.15 s  ClockTime = 1 s

Time = 54

smoothSolver:  Solving for Ux, Initial residual = 0.00404408, Final residual = 0.000318607, No Iterations 5
smoothSolver:  Solving for Uy, Initial residual = 0.304289, Final residual = 0.0217676, No Iterations 4
Pressure gradient source: uncorrected Ubar = 1.85005, pressure gradient = 2.58658
GAMG:  Solving for p, Initial residual = 0.00419909, Final residual = 0.000251994, No Iterations 8
time step continuity errors : sum local = 5.31259e-17, global = 1.0842e-18, cumulative = -1.60746e-17
Pressure gradient source: uncorrected Ubar = 1.85, pressure gradient = 2.64792
smoothSolver:  Solving for omega, Initial residual = 0.0358956, Final residual = 0.00265777, No Iterations 5
smoothSolver:  Solving for k, Initial residual = 0.00935718, Final residual = 0.000662495, No Iterations 6
ExecutionTime = 0.15 s  ClockTime = 1 s

Time = 55

smoothSolver:  Solving for Ux, Initial residual = 0.00397506, Final residual = 0.000314115, No Iterations 5
smoothSolver:  Solving for Uy, Initial residual = 0.337984, Final residual = 0.0303837, No Iterations 5
Pressure gradient source: uncorrected Ubar = 1.85005, pressure gradient = 2.57642
GAMG:  Solving for p, Initial residual = 0.00383028, Final residual = 0.000335232, No Iterations 243
time step continuity errors : sum local = 4.70273e-17, global = -4.06576e-19, cumulative = -1.64811e-17
Pressure gradient source: uncorrected Ubar = 1.85, pressure gradient = 2.64564
smoothSolver:  Solving for omega, Initial residual = 0.0363017, Final residual = 0.00266413, No Iterations 5
smoothSolver:  Solving for k, Initial residual = 0.00931487, Final residual = 0.000660494, No Iterations 6
ExecutionTime = 0.16 s  ClockTime = 1 s

Time = 56

smoothSolver:  Solving for Ux, Initial residual = 0.00391208, Final residual = 0.000309818, No Iterations 5
smoothSolver:  Solving for Uy, Initial residual = 0.427577, Final residual = 0.0391827, No Iterations 4
Pressure gradient source: uncorrected Ubar = 1.85004, pressure gradient = 2.59175
GAMG:  Solving for p, Initial residual = 0.00840027, Final residual = 0.000819013, No Iterations 585
time step continuity errors : sum local = 5.24822e-17, global = 1.01644e-19, cumulative = -1.63795e-17
Pressure gradient source: uncorrected Ubar = 1.85, pressure gradient = 2.64575
smoothSolver:  Solving for omega, Initial residual = 0.0366487, Final residual = 0.00266368, No Iterations 5
smoothSolver:  Solving for k, Initial residual = 0.00925617, Final residual = 0.0006569, No Iterations 6
ExecutionTime = 0.17 s  ClockTime = 1 s

Time = 57

smoothSolver:  Solving for Ux, Initial residual = 0.00385225, Final residual = 0.000305614, No Iterations 5
smoothSolver:  Solving for Uy, Initial residual = 0.34003, Final residual = 0.0232825, No Iterations 6
Pressure gradient source: uncorrected Ubar = 1.85004, pressure gradient = 2.58367
GAMG:  Solving for p, Initial residual = 0.000578869, Final residual = 5.60229e-05, No Iterations 469
time step continuity errors : sum local = 3.69984e-17, global = 2.30393e-18, cumulative = -1.40756e-17
Pressure gradient source: uncorrected Ubar = 1.85, pressure gradient = 2.64515
smoothSolver:  Solving for omega, Initial residual = 0.0370568, Final residual = 0.00266561, No Iterations 5
smoothSolver:  Solving for k, Initial residual = 0.00916288, Final residual = 0.00065015, No Iterations 6
ExecutionTime = 0.19 s  ClockTime = 1 s

Time = 58

smoothSolver:  Solving for Ux, Initial residual = 0.00379531, Final residual = 0.000301509, No Iterations 5
smoothSolver:  Solving for Uy, Initial residual = 0.398365, Final residual = 0.0265177, No Iterations 5
Pressure gradient source: uncorrected Ubar = 1.85003, pressure gradient = 2.60031
GAMG:  Solving for p, Initial residual = 0.0400466, Final residual = 0.00387487, No Iterations 235
time step continuity errors : sum local = 8.56689e-17, global = 2.69356e-18, cumulative = -1.1382e-17
Pressure gradient source: uncorrected Ubar = 1.85, pressure gradient = 2.64688
smoothSolver:  Solving for omega, Initial residual = 0.0373866, Final residual = 0.00265919, No Iterations 5
smoothSolver:  Solving for k, Initial residual = 0.00906608, Final residual = 0.000642708, No Iterations 6
ExecutionTime = 0.19 s  ClockTime = 1 s

Time = 59

smoothSolver:  Solving for Ux, Initial residual = 0.00373946, Final residual = 0.000297457, No Iterations 5
smoothSolver:  Solving for Uy, Initial residual = 0.409838, Final residual = 0.0405926, No Iterations 4
Pressure gradient source: uncorrected Ubar = 1.85004, pressure gradient = 2.5929
GAMG:  Solving for p, Initial residual = 0.00258875, Final residual = 0.00025372, No Iterations 122
time step continuity errors : sum local = 3.21195e-17, global = -4.06576e-19, cumulative = -1.17886e-17
Pressure gradient source: uncorrected Ubar = 1.85, pressure gradient = 2.64775
smoothSolver:  Solving for omega, Initial residual = 0.0377352, Final residual = 0.00265278, No Iterations 5
smoothSolver:  Solving for k, Initial residual = 0.00897635, Final residual = 0.000635495, No Iterations 6
ExecutionTime = 0.19 s  ClockTime = 1 s

Time = 60

smoothSolver:  Solving for Ux, Initial residual = 0.00368581, Final residual = 0.000293207, No Iterations 5
smoothSolver:  Solving for Uy, Initial residual = 0.437512, Final residual = 0.042369, No Iterations 3
Pressure gradient source: uncorrected Ubar = 1.85003, pressure gradient = 2.6119
GAMG:  Solving for p, Initial residual = 0.00436991, Final residual = 0.000353763, No Iterations 4
time step continuity errors : sum local = 2.6834e-17, global = -8.13152e-19, cumulative = -1.26017e-17
Pressure gradient source: uncorrected Ubar = 1.85, pressure gradient = 2.65114
smoothSolver:  Solving for omega, Initial residual = 0.0379077, Final residual = 0.00263168, No Iterations 5
smoothSolver:  Solving for k, Initial residual = 0.00889226, Final residual = 0.000629131, No Iterations 6
ExecutionTime = 0.2 s  ClockTime = 1 s

Time = 61

smoothSolver:  Solving for Ux, Initial residual = 0.00363285, Final residual = 0.000288839, No Iterations 5
smoothSolver:  Solving for Uy, Initial residual = 0.378821, Final residual = 0.0310804, No Iterations 4
Pressure gradient source: uncorrected Ubar = 1.85003, pressure gradient = 2.60578
GAMG:  Solving for p, Initial residual = 0.00315322, Final residual = 0.000299352, No Iterations 83
time step continuity errors : sum local = 4.62144e-17, global = -4.06311e-19, cumulative = -1.3008e-17
Pressure gradient source: uncorrected Ubar = 1.85, pressure gradient = 2.65366
smoothSolver:  Solving for omega, Initial residual = 0.0379801, Final residual = 0.0026029, No Iterations 5
smoothSolver:  Solving for k, Initial residual = 0.00881706, Final residual = 0.000623668, No Iterations 6
ExecutionTime = 0.2 s  ClockTime = 1 s

Time = 62

smoothSolver:  Solving for Ux, Initial residual = 0.00357871, Final residual = 0.000284394, No Iterations 5
smoothSolver:  Solving for Uy, Initial residual = 0.258406, Final residual = 0.0245759, No Iterations 5
Pressure gradient source: uncorrected Ubar = 1.85002, pressure gradient = 2.62727
GAMG:  Solving for p, Initial residual = 0.00509469, Final residual = 0.000366213, No Iterations 8
time step continuity errors : sum local = 4.26989e-17, global = -6.69156e-19, cumulative = -1.36772e-17
Pressure gradient source: uncorrected Ubar = 1.85, pressure gradient = 2.65887
smoothSolver:  Solving for omega, Initial residual = 0.0377896, Final residual = 0.00255409, No Iterations 5
smoothSolver:  Solving for k, Initial residual = 0.00875159, Final residual = 0.000618713, No Iterations 6
ExecutionTime = 0.2 s  ClockTime = 1 s

Time = 63

smoothSolver:  Solving for Ux, Initial residual = 0.00352462, Final residual = 0.000279806, No Iterations 5
smoothSolver:  Solving for Uy, Initial residual = 0.33405, Final residual = 0.0298079, No Iterations 5
Pressure gradient source: uncorrected Ubar = 1.85003, pressure gradient = 2.62279
GAMG:  Solving for p, Initial residual = 0.00950187, Final residual = 0.000892215, No Iterations 4
time step continuity errors : sum local = 4.10811e-17, global = 4.45539e-18, cumulative = -9.22181e-18
Pressure gradient source: uncorrected Ubar = 1.85, pressure gradient = 2.66323
smoothSolver:  Solving for omega, Initial residual = 0.0374669, Final residual = 0.00249647, No Iterations 5
smoothSolver:  Solving for k, Initial residual = 0.00869353, Final residual = 0.000614131, No Iterations 6
ExecutionTime = 0.2 s  ClockTime = 1 s

Time = 64

smoothSolver:  Solving for Ux, Initial residual = 0.00347027, Final residual = 0.000275318, No Iterations 5
smoothSolver:  Solving for Uy, Initial residual = 0.285884, Final residual = 0.0198242, No Iterations 6
Pressure gradient source: uncorrected Ubar = 1.85001, pressure gradient = 2.64676
GAMG:  Solving for p, Initial residual = 0.00979055, Final residual = 0.000959843, No Iterations 380
time step continuity errors : sum local = 4.44692e-17, global = 2.15146e-18, cumulative = -7.07034e-18
Pressure gradient source: uncorrected Ubar = 1.85, pressure gradient = 2.67041
smoothSolver:  Solving for omega, Initial residual = 0.0367987, Final residual = 0.00364272, No Iterations 4
smoothSolver:  Solving for k, Initial residual = 0.00864905, Final residual = 0.000611003, No Iterations 6
ExecutionTime = 0.21 s  ClockTime = 1 s

Time = 65

smoothSolver:  Solving for Ux, Initial residual = 0.00341472, Final residual = 0.000271124, No Iterations 5
smoothSolver:  Solving for Uy, Initial residual = 0.401982, Final residual = 0.039232, No Iterations 5
Pressure gradient source: uncorrected Ubar = 1.85002, pressure gradient = 2.63979
GAMG:  Solving for p, Initial residual = 0.000830294, Final residual = 8.28276e-05, No Iterations 253
time step continuity errors : sum local = 3.89296e-17, global = -1.52466e-18, cumulative = -8.595e-18
Pressure gradient source: uncorrected Ubar = 1.85, pressure gradient = 2.6759
smoothSolver:  Solving for omega, Initial residual = 0.0360232, Final residual = 0.00351936, No Iterations 4
smoothSolver:  Solving for k, Initial residual = 0.00862858, Final residual = 0.000609406, No Iterations 6
ExecutionTime = 0.22 s  ClockTime = 1 s

Time = 66

smoothSolver:  Solving for Ux, Initial residual = 0.00336268, Final residual = 0.000267082, No Iterations 5
smoothSolver:  Solving for Uy, Initial residual = 0.426242, Final residual = 0.0319817, No Iterations 5
Pressure gradient source: uncorrected Ubar = 1.85001, pressure gradient = 2.66584
GAMG:  Solving for p, Initial residual = 0.000907746, Final residual = 8.64002e-05, No Iterations 188
time step continuity errors : sum local = 7.07442e-17, global = 2.98156e-18, cumulative = -5.61345e-18
Pressure gradient source: uncorrected Ubar = 1.84999, pressure gradient = 2.68442
smoothSolver:  Solving for omega, Initial residual = 0.0350477, Final residual = 0.00337412, No Iterations 4
smoothSolver:  Solving for k, Initial residual = 0.00861179, Final residual = 0.000607809, No Iterations 6
ExecutionTime = 0.22 s  ClockTime = 1 s

Time = 67

smoothSolver:  Solving for Ux, Initial residual = 0.00331291, Final residual = 0.000263085, No Iterations 5
smoothSolver:  Solving for Uy, Initial residual = 0.297681, Final residual = 0.0241745, No Iterations 5
Pressure gradient source: uncorrected Ubar = 1.85001, pressure gradient = 2.66544
GAMG:  Solving for p, Initial residual = 0.00143653, Final residual = 0.000143013, No Iterations 548
time step continuity errors : sum local = 7.70122e-17, global = 1.79571e-18, cumulative = -3.81774e-18
Pressure gradient source: uncorrected Ubar = 1.84999, pressure gradient = 2.69234
smoothSolver:  Solving for omega, Initial residual = 0.0341447, Final residual = 0.00323874, No Iterations 4
smoothSolver:  Solving for k, Initial residual = 0.00859487, Final residual = 0.000606117, No Iterations 6
ExecutionTime = 0.24 s  ClockTime = 1 s

Time = 68

smoothSolver:  Solving for Ux, Initial residual = 0.00326417, Final residual = 0.000259247, No Iterations 5
smoothSolver:  Solving for Uy, Initial residual = 0.369691, Final residual = 0.0250303, No Iterations 6
Pressure gradient source: uncorrected Ubar = 1.85, pressure gradient = 2.69054
GAMG:  Solving for p, Initial residual = 0.000802277, Final residual = 7.98192e-05, No Iterations 438
time step continuity errors : sum local = 7.33192e-17, global = 5.42101e-19, cumulative = -3.27564e-18
Pressure gradient source: uncorrected Ubar = 1.84999, pressure gradient = 2.70261
smoothSolver:  Solving for omega, Initial residual = 0.0332541, Final residual = 0.0031034, No Iterations 4
smoothSolver:  Solving for k, Initial residual = 0.0085771, Final residual = 0.000604704, No Iterations 6
ExecutionTime = 0.25 s  ClockTime = 1 s

Time = 69

smoothSolver:  Solving for Ux, Initial residual = 0.00321654, Final residual = 0.000255688, No Iterations 5
smoothSolver:  Solving for Uy, Initial residual = 0.471267, Final residual = 0.0410721, No Iterations 5
Pressure gradient source: uncorrected Ubar = 1.85001, pressure gradient = 2.69209
GAMG:  Solving for p, Initial residual = 0.0158457, Final residual = 0.00132827, No Iterations 10
time step continuity errors : sum local = 7.42678e-17, global = 2.71051e-18, cumulative = -5.6513e-19
Pressure gradient source: uncorrected Ubar = 1.84999, pressure gradient = 2.71237
smoothSolver:  Solving for omega, Initial residual = 0.0324887, Final residual = 0.0029827, No Iterations 4
smoothSolver:  Solving for k, Initial residual = 0.0085656, Final residual = 0.000603483, No Iterations 6
ExecutionTime = 0.25 s  ClockTime = 1 s

Time = 70

smoothSolver:  Solving for Ux, Initial residual = 0.00317129, Final residual = 0.000252342, No Iterations 5
smoothSolver:  Solving for Uy, Initial residual = 0.267279, Final residual = 0.0211757, No Iterations 4
Pressure gradient source: uncorrected Ubar = 1.85, pressure gradient = 2.71832
GAMG:  Solving for p, Initial residual = 0.0125702, Final residual = 0.000973835, No Iterations 8
time step continuity errors : sum local = 2.90702e-17, global = -8.13152e-19, cumulative = -1.37828e-18
Pressure gradient source: uncorrected Ubar = 1.84999, pressure gradient = 2.72432
smoothSolver:  Solving for omega, Initial residual = 0.0317408, Final residual = 0.00286186, No Iterations 4
smoothSolver:  Solving for k, Initial residual = 0.00855512, Final residual = 0.000602093, No Iterations 6
ExecutionTime = 0.25 s  ClockTime = 1 s

Time = 71

smoothSolver:  Solving for Ux, Initial residual = 0.00312907, Final residual = 0.000249024, No Iterations 5
smoothSolver:  Solving for Uy, Initial residual = 0.395274, Final residual = 0.0309276, No Iterations 5
Pressure gradient source: uncorrected Ubar = 1.85, pressure gradient = 2.7205
GAMG:  Solving for p, Initial residual = 0.0118028, Final residual = 0.000923114, No Iterations 6
time step continuity errors : sum local = 4.43845e-17, global = 6.77626e-20, cumulative = -1.31052e-18
Pressure gradient source: uncorrected Ubar = 1.84999, pressure gradient = 2.7356
smoothSolver:  Solving for omega, Initial residual = 0.0310943, Final residual = 0.00275441, No Iterations 4
smoothSolver:  Solving for k, Initial residual = 0.00854336, Final residual = 0.000600534, No Iterations 6
ExecutionTime = 0.25 s  ClockTime = 1 s

Time = 72

smoothSolver:  Solving for Ux, Initial residual = 0.00308769, Final residual = 0.000245861, No Iterations 5
smoothSolver:  Solving for Uy, Initial residual = 0.445226, Final residual = 0.0247574, No Iterations 3
Pressure gradient source: uncorrected Ubar = 1.84999, pressure gradient = 2.74804
GAMG:  Solving for p, Initial residual = 0.0101113, Final residual = 0.00090536, No Iterations 481
time step continuity errors : sum local = 6.50521e-17, global = -1.6263e-18, cumulative = -2.93682e-18
Pressure gradient source: uncorrected Ubar = 1.84999, pressure gradient = 2.74901
smoothSolver:  Solving for omega, Initial residual = 0.0304536, Final residual = 0.00264621, No Iterations 4
smoothSolver:  Solving for k, Initial residual = 0.00853062, Final residual = 0.000598886, No Iterations 6
ExecutionTime = 0.26 s  ClockTime = 1 s

Time = 73

smoothSolver:  Solving for Ux, Initial residual = 0.00304749, Final residual = 0.000243076, No Iterations 5
smoothSolver:  Solving for Uy, Initial residual = 0.294905, Final residual = 0.0237659, No Iterations 5
Pressure gradient source: uncorrected Ubar = 1.85, pressure gradient = 2.75022
GAMG:  Solving for p, Initial residual = 0.000704984, Final residual = 6.11723e-05, No Iterations 217
time step continuity errors : sum local = 7.64701e-17, global = 0, cumulative = -2.93682e-18
Pressure gradient source: uncorrected Ubar = 1.84999, pressure gradient = 2.76149
smoothSolver:  Solving for omega, Initial residual = 0.029907, Final residual = 0.00255048, No Iterations 4
smoothSolver:  Solving for k, Initial residual = 0.00851764, Final residual = 0.000597586, No Iterations 6
ExecutionTime = 0.27 s  ClockTime = 1 s

Time = 74

smoothSolver:  Solving for Ux, Initial residual = 0.00301053, Final residual = 0.000240428, No Iterations 5
smoothSolver:  Solving for Uy, Initial residual = 0.331746, Final residual = 0.0307443, No Iterations 5
Pressure gradient source: uncorrected Ubar = 1.84999, pressure gradient = 2.77889
GAMG:  Solving for p, Initial residual = 0.0019584, Final residual = 0.000192442, No Iterations 312
time step continuity errors : sum local = 4.70315e-17, global = -1.3129e-19, cumulative = -3.06811e-18
Pressure gradient source: uncorrected Ubar = 1.84999, pressure gradient = 2.77608
smoothSolver:  Solving for omega, Initial residual = 0.0293588, Final residual = 0.00245378, No Iterations 4
smoothSolver:  Solving for k, Initial residual = 0.00850851, Final residual = 0.000596089, No Iterations 6
ExecutionTime = 0.27 s  ClockTime = 1 s

Time = 75

smoothSolver:  Solving for Ux, Initial residual = 0.00297592, Final residual = 0.000237813, No Iterations 5
smoothSolver:  Solving for Uy, Initial residual = 0.389021, Final residual = 0.029481, No Iterations 4
Pressure gradient source: uncorrected Ubar = 1.85, pressure gradient = 2.78066
GAMG:  Solving for p, Initial residual = 0.0102182, Final residual = 0.00100765, No Iterations 62
time step continuity errors : sum local = 4.64852e-17, global = -6.77626e-19, cumulative = -3.74574e-18
Pressure gradient source: uncorrected Ubar = 1.84999, pressure gradient = 2.78946
smoothSolver:  Solving for omega, Initial residual = 0.0289011, Final residual = 0.00236885, No Iterations 4
smoothSolver:  Solving for k, Initial residual = 0.00849794, Final residual = 0.000594404, No Iterations 6
ExecutionTime = 0.28 s  ClockTime = 1 s

Time = 76

smoothSolver:  Solving for Ux, Initial residual = 0.00294237, Final residual = 0.000235568, No Iterations 5
smoothSolver:  Solving for Uy, Initial residual = 0.431882, Final residual = 0.0427943, No Iterations 4
Pressure gradient source: uncorrected Ubar = 1.84999, pressure gradient = 2.81014
GAMG:  Solving for p, Initial residual = 0.0552388, Final residual = 0.00301933, No Iterations 4
time step continuity errors : sum local = 1.7974e-17, global = -8.47033e-20, cumulative = -3.83044e-18
Pressure gradient source: uncorrected Ubar = 1.84999, pressure gradient = 2.8049
smoothSolver:  Solving for omega, Initial residual = 0.0284365, Final residual = 0.00228226, No Iterations 4
smoothSolver:  Solving for k, Initial residual = 0.00848574, Final residual = 0.000592562, No Iterations 6
ExecutionTime = 0.28 s  ClockTime = 1 s

Time = 77

smoothSolver:  Solving for Ux, Initial residual = 0.00291009, Final residual = 0.000233497, No Iterations 5
smoothSolver:  Solving for Uy, Initial residual = 0.306639, Final residual = 0.0202212, No Iterations 5
Pressure gradient source: uncorrected Ubar = 1.85, pressure gradient = 2.81114
GAMG:  Solving for p, Initial residual = 0.145965, Final residual = 0.0144857, No Iterations 298
time step continuity errors : sum local = 4.03865e-17, global = 6.77626e-20, cumulative = -3.76268e-18
Pressure gradient source: uncorrected Ubar = 1.84999, pressure gradient = 2.81882
smoothSolver:  Solving for omega, Initial residual = 0.0280566, Final residual = 0.00220714, No Iterations 4
smoothSolver:  Solving for k, Initial residual = 0.00847199, Final residual = 0.000590548, No Iterations 6
ExecutionTime = 0.29 s  ClockTime = 1 s

Time = 78

smoothSolver:  Solving for Ux, Initial residual = 0.00288035, Final residual = 0.000231524, No Iterations 5
smoothSolver:  Solving for Uy, Initial residual = 0.299824, Final residual = 0.021258, No Iterations 5
Pressure gradient source: uncorrected Ubar = 1.84999, pressure gradient = 2.8411
GAMG:  Solving for p, Initial residual = 0.00185365, Final residual = 0.000179438, No Iterations 65
time step continuity errors : sum local = 6.38324e-17, global = -2.71051e-19, cumulative = -4.03373e-18
Pressure gradient source: uncorrected Ubar = 1.84999, pressure gradient = 2.83477
smoothSolver:  Solving for omega, Initial residual = 0.027665, Final residual = 0.0021298, No Iterations 4
smoothSolver:  Solving for k, Initial residual = 0.0084559, Final residual = 0.000588664, No Iterations 6
ExecutionTime = 0.29 s  ClockTime = 1 s

Time = 79

smoothSolver:  Solving for Ux, Initial residual = 0.00285284, Final residual = 0.000229715, No Iterations 5
smoothSolver:  Solving for Uy, Initial residual = 0.255588, Final residual = 0.0207837, No Iterations 5
Pressure gradient source: uncorrected Ubar = 1.85, pressure gradient = 2.84095
GAMG:  Solving for p, Initial residual = 0.00174706, Final residual = 0.000153646, No Iterations 5
time step continuity errors : sum local = 7.27771e-17, global = -6.64074e-18, cumulative = -1.06745e-17
Pressure gradient source: uncorrected Ubar = 1.84999, pressure gradient = 2.84888
smoothSolver:  Solving for omega, Initial residual = 0.0273493, Final residual = 0.00206324, No Iterations 4
smoothSolver:  Solving for k, Initial residual = 0.00844168, Final residual = 0.000586697, No Iterations 6
ExecutionTime = 0.29 s  ClockTime = 1 s

Time = 80

smoothSolver:  Solving for Ux, Initial residual = 0.00282593, Final residual = 0.000228185, No Iterations 5
smoothSolver:  Solving for Uy, Initial residual = 0.373205, Final residual = 0.0371827, No Iterations 5
Pressure gradient source: uncorrected Ubar = 1.84999, pressure gradient = 2.87117
GAMG:  Solving for p, Initial residual = 0.00230478, Final residual = 0.000177832, No Iterations 5
time step continuity errors : sum local = 7.48099e-17, global = 6.77626e-20, cumulative = -1.06067e-17
Pressure gradient source: uncorrected Ubar = 1.84999, pressure gradient = 2.865
smoothSolver:  Solving for omega, Initial residual = 0.0270183, Final residual = 0.00199402, No Iterations 4
smoothSolver:  Solving for k, Initial residual = 0.00842715, Final residual = 0.000584556, No Iterations 6
ExecutionTime = 0.29 s  ClockTime = 1 s

Time = 81

smoothSolver:  Solving for Ux, Initial residual = 0.0028003, Final residual = 0.000226705, No Iterations 5
smoothSolver:  Solving for Uy, Initial residual = 0.524798, Final residual = 0.0353584, No Iterations 5
Pressure gradient source: uncorrected Ubar = 1.85, pressure gradient = 2.86979
GAMG:  Solving for p, Initial residual = 0.00155178, Final residual = 0.000141663, No Iterations 237
time step continuity errors : sum local = 4.89585e-17, global = -1.25361e-18, cumulative = -1.18603e-17
Pressure gradient source: uncorrected Ubar = 1.84999, pressure gradient = 2.87901
smoothSolver:  Solving for omega, Initial residual = 0.0267551, Final residual = 0.0019349, No Iterations 4
smoothSolver:  Solving for k, Initial residual = 0.00841082, Final residual = 0.000582244, No Iterations 6
ExecutionTime = 0.3 s  ClockTime = 1 s

Time = 82

smoothSolver:  Solving for Ux, Initial residual = 0.00277789, Final residual = 0.000225384, No Iterations 5
smoothSolver:  Solving for Uy, Initial residual = 0.521283, Final residual = 0.0374534, No Iterations 4
Pressure gradient source: uncorrected Ubar = 1.84999, pressure gradient = 2.90007
GAMG:  Solving for p, Initial residual = 0.0211089, Final residual = 0.00100808, No Iterations 4
time step continuity errors : sum local = 9.96111e-18, global = 2.03288e-19, cumulative = -1.1657e-17
Pressure gradient source: uncorrected Ubar = 1.84999, pressure gradient = 2.89504
smoothSolver:  Solving for omega, Initial residual = 0.0264753, Final residual = 0.00187279, No Iterations 4
smoothSolver:  Solving for k, Initial residual = 0.00839152, Final residual = 0.00057971, No Iterations 6
ExecutionTime = 0.3 s  ClockTime = 1 s

Time = 83

smoothSolver:  Solving for Ux, Initial residual = 0.00275613, Final residual = 0.000224332, No Iterations 5
smoothSolver:  Solving for Uy, Initial residual = 0.617108, Final residual = 0.0386831, No Iterations 3
Pressure gradient source: uncorrected Ubar = 1.85, pressure gradient = 2.89729
GAMG:  Solving for p, Initial residual = 0.0128843, Final residual = 0.000962758, No Iterations 3
time step continuity errors : sum local = 4.37768e-17, global = -1.33408e-19, cumulative = -1.17904e-17
Pressure gradient source: uncorrected Ubar = 1.84999, pressure gradient = 2.90869
smoothSolver:  Solving for omega, Initial residual = 0.026258, Final residual = 0.00182022, No Iterations 4
smoothSolver:  Solving for k, Initial residual = 0.00837024, Final residual = 0.000577009, No Iterations 6
ExecutionTime = 0.3 s  ClockTime = 1 s

Time = 84

smoothSolver:  Solving for Ux, Initial residual = 0.00273502, Final residual = 0.000223279, No Iterations 5
smoothSolver:  Solving for Uy, Initial residual = 0.422914, Final residual = 0.0305874, No Iterations 4
Pressure gradient source: uncorrected Ubar = 1.84999, pressure gradient = 2.92737
GAMG:  Solving for p, Initial residual = 0.0184425, Final residual = 0.00143678, No Iterations 7
time step continuity errors : sum local = 3.55076e-17, global = 8.13152e-19, cumulative = -1.09773e-17
Pressure gradient source: uncorrected Ubar = 1.84999, pressure gradient = 2.92436
smoothSolver:  Solving for omega, Initial residual = 0.0260175, Final residual = 0.00176416, No Iterations 4
smoothSolver:  Solving for k, Initial residual = 0.00834682, Final residual = 0.000574449, No Iterations 6
ExecutionTime = 0.3 s  ClockTime = 1 s

Time = 85

smoothSolver:  Solving for Ux, Initial residual = 0.00271592, Final residual = 0.000222476, No Iterations 5
smoothSolver:  Solving for Uy, Initial residual = 0.332781, Final residual = 0.03244, No Iterations 4
Pressure gradient source: uncorrected Ubar = 1.85, pressure gradient = 2.9231
GAMG:  Solving for p, Initial residual = 0.012469, Final residual = 0.00119994, No Iterations 201
time step continuity errors : sum local = 5.8242e-17, global = -4.40457e-18, cumulative = -1.53819e-17
Pressure gradient source: uncorrected Ubar = 1.84999, pressure gradient = 2.93741
smoothSolver:  Solving for omega, Initial residual = 0.0258381, Final residual = 0.00171736, No Iterations 4
smoothSolver:  Solving for k, Initial residual = 0.00832511, Final residual = 0.000571786, No Iterations 6
ExecutionTime = 0.31 s  ClockTime = 1 s

Time = 86

smoothSolver:  Solving for Ux, Initial residual = 0.00269804, Final residual = 0.000221748, No Iterations 5
smoothSolver:  Solving for Uy, Initial residual = 0.39651, Final residual = 0.0365936, No Iterations 4
Pressure gradient source: uncorrected Ubar = 1.84999, pressure gradient = 2.95287
GAMG:  Solving for p, Initial residual = 0.00264567, Final residual = 0.000248312, No Iterations 7
time step continuity errors : sum local = 7.57247e-17, global = -3.96411e-18, cumulative = -1.9346e-17
Pressure gradient source: uncorrected Ubar = 1.84999, pressure gradient = 2.95253
smoothSolver:  Solving for omega, Initial residual = 0.0256307, Final residual = 0.00253301, No Iterations 3
smoothSolver:  Solving for k, Initial residual = 0.0083117, Final residual = 0.000569753, No Iterations 6
ExecutionTime = 0.31 s  ClockTime = 1 s

Time = 87

smoothSolver:  Solving for Ux, Initial residual = 0.00268306, Final residual = 0.000221389, No Iterations 5
smoothSolver:  Solving for Uy, Initial residual = 0.342337, Final residual = 0.0320364, No Iterations 4
Pressure gradient source: uncorrected Ubar = 1.85001, pressure gradient = 2.93993
GAMG:  Solving for p, Initial residual = 0.00138442, Final residual = 0.000106256, No Iterations 4
time step continuity errors : sum local = 1.02118e-16, global = -5.01444e-18, cumulative = -2.43604e-17
Pressure gradient source: uncorrected Ubar = 1.84999, pressure gradient = 2.96327
smoothSolver:  Solving for omega, Initial residual = 0.025507, Final residual = 0.0024829, No Iterations 3
smoothSolver:  Solving for k, Initial residual = 0.00830653, Final residual = 0.000568391, No Iterations 6
ExecutionTime = 0.31 s  ClockTime = 1 s

Time = 88

smoothSolver:  Solving for Ux, Initial residual = 0.0026693, Final residual = 0.000221107, No Iterations 5
smoothSolver:  Solving for Uy, Initial residual = 0.285254, Final residual = 0.0219744, No Iterations 4
Pressure gradient source: uncorrected Ubar = 1.85, pressure gradient = 2.96598
GAMG:  Solving for p, Initial residual = 0.00175951, Final residual = 0.000171789, No Iterations 11
time step continuity errors : sum local = 6.07153e-17, global = -4.67562e-18, cumulative = -2.9036e-17
Pressure gradient source: uncorrected Ubar = 1.84999, pressure gradient = 2.97578
smoothSolver:  Solving for omega, Initial residual = 0.025378, Final residual = 0.00242579, No Iterations 3
smoothSolver:  Solving for k, Initial residual = 0.00829689, Final residual = 0.000566699, No Iterations 6
ExecutionTime = 0.31 s  ClockTime = 1 s

Time = 89

smoothSolver:  Solving for Ux, Initial residual = 0.0026569, Final residual = 0.000221014, No Iterations 5
smoothSolver:  Solving for Uy, Initial residual = 0.196858, Final residual = 0.0140622, No Iterations 5
Pressure gradient source: uncorrected Ubar = 1.85, pressure gradient = 2.9673
GAMG:  Solving for p, Initial residual = 0.0016069, Final residual = 0.000134796, No Iterations 5
time step continuity errors : sum local = 4.7383e-17, global = 4.01494e-18, cumulative = -2.50211e-17
Pressure gradient source: uncorrected Ubar = 1.84999, pressure gradient = 2.98754
smoothSolver:  Solving for omega, Initial residual = 0.0252969, Final residual = 0.00238135, No Iterations 3
smoothSolver:  Solving for k, Initial residual = 0.00828504, Final residual = 0.000564931, No Iterations 6
ExecutionTime = 0.31 s  ClockTime = 1 s

Time = 90

smoothSolver:  Solving for Ux, Initial residual = 0.00264456, Final residual = 0.000220792, No Iterations 5
smoothSolver:  Solving for Uy, Initial residual = 0.40849, Final residual = 0.0330658, No Iterations 5
Pressure gradient source: uncorrected Ubar = 1.85, pressure gradient = 2.98224
GAMG:  Solving for p, Initial residual = 0.00231715, Final residual = 0.000208337, No Iterations 38
time step continuity errors : sum local = 8.5652e-17, global = -1.0842e-18, cumulative = -2.61053e-17
Pressure gradient source: uncorrected Ubar = 1.84999, pressure gradient = 2.99837
smoothSolver:  Solving for omega, Initial residual = 0.0251838, Final residual = 0.00232799, No Iterations 3
smoothSolver:  Solving for k, Initial residual = 0.00827174, Final residual = 0.00056314, No Iterations 6
ExecutionTime = 0.31 s  ClockTime = 1 s

Time = 91

smoothSolver:  Solving for Ux, Initial residual = 0.00263362, Final residual = 0.000220783, No Iterations 5
smoothSolver:  Solving for Uy, Initial residual = 0.335286, Final residual = 0.0287631, No Iterations 5
Pressure gradient source: uncorrected Ubar = 1.85, pressure gradient = 2.99037
GAMG:  Solving for p, Initial residual = 0.00157731, Final residual = 0.000156187, No Iterations 42
time step continuity errors : sum local = 9.93485e-17, global = -5.56501e-18, cumulative = -3.16703e-17
Pressure gradient source: uncorrected Ubar = 1.84999, pressure gradient = 3.01029
smoothSolver:  Solving for omega, Initial residual = 0.0251184, Final residual = 0.00228766, No Iterations 3
smoothSolver:  Solving for k, Initial residual = 0.00825913, Final residual = 0.000561155, No Iterations 6
ExecutionTime = 0.32 s  ClockTime = 1 s

Time = 92

smoothSolver:  Solving for Ux, Initial residual = 0.00262313, Final residual = 0.000220709, No Iterations 5
smoothSolver:  Solving for Uy, Initial residual = 0.400544, Final residual = 0.029266, No Iterations 5
Pressure gradient source: uncorrected Ubar = 1.85001, pressure gradient = 2.99665
GAMG:  Solving for p, Initial residual = 0.00156714, Final residual = 0.000144602, No Iterations 7
time step continuity errors : sum local = 4.46895e-17, global = -6.20028e-18, cumulative = -3.78706e-17
Pressure gradient source: uncorrected Ubar = 1.85, pressure gradient = 3.01928
smoothSolver:  Solving for omega, Initial residual = 0.0250153, Final residual = 0.00223819, No Iterations 3
smoothSolver:  Solving for k, Initial residual = 0.00824258, Final residual = 0.000558879, No Iterations 6
ExecutionTime = 0.32 s  ClockTime = 1 s

Time = 93

smoothSolver:  Solving for Ux, Initial residual = 0.00261374, Final residual = 0.000220763, No Iterations 5
smoothSolver:  Solving for Uy, Initial residual = 0.324437, Final residual = 0.0233237, No Iterations 5
Pressure gradient source: uncorrected Ubar = 1.85001, pressure gradient = 3.00745
GAMG:  Solving for p, Initial residual = 0.00109639, Final residual = 9.55468e-05, No Iterations 8
time step continuity errors : sum local = 6.52893e-17, global = 4.40457e-19, cumulative = -3.74301e-17
[...]
time step continuity errors : sum local = 2.05998e-17, global = 3.25261e-18, cumulative = -1.01964e-15
Pressure gradient source: uncorrected Ubar = 1.85, pressure gradient = 0.102964
smoothSolver:  Solving for omega, Initial residual = 1.82205e-05, Final residual = 7.48683e-06, No Iterations 2
smoothSolver:  Solving for k, Initial residual = 0.00164212, Final residual = 0.000150504, No Iterations 6
ExecutionTime = 13.11 s  ClockTime = 14 s

Time = 1978

smoothSolver:  Solving for Ux, Initial residual = 0.000248293, Final residual = 1.67419e-05, No Iterations 6
smoothSolver:  Solving for Uy, Initial residual = 0.193982, Final residual = 0.0137957, No Iterations 5
Pressure gradient source: uncorrected Ubar = 1.85, pressure gradient = 0.102753
GAMG:  Solving for p, Initial residual = 0.00201477, Final residual = 0.000196689, No Iterations 335
time step continuity errors : sum local = 2.1684e-17, global = 0, cumulative = -1.01964e-15
Pressure gradient source: uncorrected Ubar = 1.85, pressure gradient = 0.102928
smoothSolver:  Solving for omega, Initial residual = 1.81839e-05, Final residual = 7.47126e-06, No Iterations 2
smoothSolver:  Solving for k, Initial residual = 0.0016317, Final residual = 0.000149551, No Iterations 6
ExecutionTime = 13.12 s  ClockTime = 14 s

Time = 1979

smoothSolver:  Solving for Ux, Initial residual = 0.000247927, Final residual = 1.67158e-05, No Iterations 6
smoothSolver:  Solving for Uy, Initial residual = 0.287099, Final residual = 0.0243736, No Iterations 4
Pressure gradient source: uncorrected Ubar = 1.85, pressure gradient = 0.102716
GAMG:  Solving for p, Initial residual = 0.00310651, Final residual = 0.000310532, No Iterations 435
time step continuity errors : sum local = 1.6263e-17, global = 1.0842e-18, cumulative = -1.01855e-15
Pressure gradient source: uncorrected Ubar = 1.85, pressure gradient = 0.102892
smoothSolver:  Solving for omega, Initial residual = 1.81472e-05, Final residual = 7.45563e-06, No Iterations 2
smoothSolver:  Solving for k, Initial residual = 0.00162134, Final residual = 0.000148602, No Iterations 6
ExecutionTime = 13.13 s  ClockTime = 14 s

Time = 1980

smoothSolver:  Solving for Ux, Initial residual = 0.00024756, Final residual = 1.66895e-05, No Iterations 6
smoothSolver:  Solving for Uy, Initial residual = 0.188672, Final residual = 0.0172523, No Iterations 5
Pressure gradient source: uncorrected Ubar = 1.85, pressure gradient = 0.10268
GAMG:  Solving for p, Initial residual = 0.000924871, Final residual = 9.01033e-05, No Iterations 113
time step continuity errors : sum local = 2.1684e-17, global = 0, cumulative = -1.01855e-15
Pressure gradient source: uncorrected Ubar = 1.85, pressure gradient = 0.102855
smoothSolver:  Solving for omega, Initial residual = 1.81104e-05, Final residual = 7.43996e-06, No Iterations 2
smoothSolver:  Solving for k, Initial residual = 0.00161103, Final residual = 0.00014766, No Iterations 6
ExecutionTime = 13.13 s  ClockTime = 14 s

Time = 1981

smoothSolver:  Solving for Ux, Initial residual = 0.000247191, Final residual = 1.66632e-05, No Iterations 6
smoothSolver:  Solving for Uy, Initial residual = 0.113871, Final residual = 0.0103591, No Iterations 5
Pressure gradient source: uncorrected Ubar = 1.85, pressure gradient = 0.102644
GAMG:  Solving for p, Initial residual = 0.00147881, Final residual = 0.000127424, No Iterations 8
time step continuity errors : sum local = 4.44523e-17, global = -5.42101e-18, cumulative = -1.02397e-15
Pressure gradient source: uncorrected Ubar = 1.85, pressure gradient = 0.102819
smoothSolver:  Solving for omega, Initial residual = 1.80734e-05, Final residual = 7.42423e-06, No Iterations 2
smoothSolver:  Solving for k, Initial residual = 0.00160079, Final residual = 0.000146722, No Iterations 6
ExecutionTime = 13.14 s  ClockTime = 14 s

Time = 1982

smoothSolver:  Solving for Ux, Initial residual = 0.000246822, Final residual = 1.66368e-05, No Iterations 6
smoothSolver:  Solving for Uy, Initial residual = 0.15091, Final residual = 0.0112929, No Iterations 4
Pressure gradient source: uncorrected Ubar = 1.85, pressure gradient = 0.102608
GAMG:  Solving for p, Initial residual = 0.000641346, Final residual = 6.0037e-05, No Iterations 503
time step continuity errors : sum local = 4.33681e-17, global = -2.1684e-18, cumulative = -1.02614e-15
Pressure gradient source: uncorrected Ubar = 1.85, pressure gradient = 0.102783
smoothSolver:  Solving for omega, Initial residual = 1.80363e-05, Final residual = 7.40844e-06, No Iterations 2
smoothSolver:  Solving for k, Initial residual = 0.0015906, Final residual = 0.00014579, No Iterations 6
ExecutionTime = 13.15 s  ClockTime = 14 s

Time = 1983

smoothSolver:  Solving for Ux, Initial residual = 0.000246452, Final residual = 1.66103e-05, No Iterations 6
smoothSolver:  Solving for Uy, Initial residual = 0.11701, Final residual = 0.00827698, No Iterations 6
Pressure gradient source: uncorrected Ubar = 1.85, pressure gradient = 0.102572
GAMG:  Solving for p, Initial residual = 0.000885972, Final residual = 5.4895e-05, No Iterations 8
time step continuity errors : sum local = 4.55365e-17, global = -2.1684e-18, cumulative = -1.02831e-15
Pressure gradient source: uncorrected Ubar = 1.85, pressure gradient = 0.102746
smoothSolver:  Solving for omega, Initial residual = 1.79991e-05, Final residual = 7.39261e-06, No Iterations 2
smoothSolver:  Solving for k, Initial residual = 0.00158047, Final residual = 0.000144863, No Iterations 6
ExecutionTime = 13.15 s  ClockTime = 14 s

Time = 1984

smoothSolver:  Solving for Ux, Initial residual = 0.00024608, Final residual = 1.65838e-05, No Iterations 6
smoothSolver:  Solving for Uy, Initial residual = 0.294543, Final residual = 0.0233914, No Iterations 5
Pressure gradient source: uncorrected Ubar = 1.85, pressure gradient = 0.102536
GAMG:  Solving for p, Initial residual = 0.00115373, Final residual = 0.000103349, No Iterations 8
time step continuity errors : sum local = 6.72205e-17, global = 2.1684e-18, cumulative = -1.02614e-15
Pressure gradient source: uncorrected Ubar = 1.85, pressure gradient = 0.10271
smoothSolver:  Solving for omega, Initial residual = 1.79617e-05, Final residual = 7.37672e-06, No Iterations 2
smoothSolver:  Solving for k, Initial residual = 0.0015704, Final residual = 0.000143941, No Iterations 6
ExecutionTime = 13.15 s  ClockTime = 14 s

Time = 1985

smoothSolver:  Solving for Ux, Initial residual = 0.000245707, Final residual = 1.65571e-05, No Iterations 6
smoothSolver:  Solving for Uy, Initial residual = 0.204409, Final residual = 0.0189562, No Iterations 4
Pressure gradient source: uncorrected Ubar = 1.85, pressure gradient = 0.1025
GAMG:  Solving for p, Initial residual = 0.0013404, Final residual = 0.000133609, No Iterations 270
time step continuity errors : sum local = 3.79471e-17, global = 1.0842e-18, cumulative = -1.02506e-15
Pressure gradient source: uncorrected Ubar = 1.85, pressure gradient = 0.102674
smoothSolver:  Solving for omega, Initial residual = 1.79242e-05, Final residual = 7.36078e-06, No Iterations 2
smoothSolver:  Solving for k, Initial residual = 0.00156038, Final residual = 0.000143024, No Iterations 6
ExecutionTime = 13.16 s  ClockTime = 14 s

Time = 1986

smoothSolver:  Solving for Ux, Initial residual = 0.000245333, Final residual = 1.65304e-05, No Iterations 6
smoothSolver:  Solving for Uy, Initial residual = 0.283297, Final residual = 0.0185319, No Iterations 5
Pressure gradient source: uncorrected Ubar = 1.85, pressure gradient = 0.102464
GAMG:  Solving for p, Initial residual = 0.00874391, Final residual = 0.000815981, No Iterations 427
time step continuity errors : sum local = 4.44523e-17, global = 1.0842e-18, cumulative = -1.02397e-15
Pressure gradient source: uncorrected Ubar = 1.85, pressure gradient = 0.102638
smoothSolver:  Solving for omega, Initial residual = 1.78866e-05, Final residual = 7.34479e-06, No Iterations 2
smoothSolver:  Solving for k, Initial residual = 0.00155042, Final residual = 0.000142113, No Iterations 6
ExecutionTime = 13.17 s  ClockTime = 14 s

Time = 1987

smoothSolver:  Solving for Ux, Initial residual = 0.000244958, Final residual = 1.65037e-05, No Iterations 6
smoothSolver:  Solving for Uy, Initial residual = 0.569986, Final residual = 0.0379043, No Iterations 5
Pressure gradient source: uncorrected Ubar = 1.85, pressure gradient = 0.102428
GAMG:  Solving for p, Initial residual = 0.000472323, Final residual = 4.70997e-05, No Iterations 568
time step continuity errors : sum local = 2.92735e-17, global = 1.0842e-18, cumulative = -1.02289e-15
Pressure gradient source: uncorrected Ubar = 1.85, pressure gradient = 0.102602
smoothSolver:  Solving for omega, Initial residual = 1.78489e-05, Final residual = 7.32875e-06, No Iterations 2
smoothSolver:  Solving for k, Initial residual = 0.00154051, Final residual = 0.000141206, No Iterations 6
ExecutionTime = 13.18 s  ClockTime = 14 s

Time = 1988

smoothSolver:  Solving for Ux, Initial residual = 0.000244582, Final residual = 1.64768e-05, No Iterations 6
smoothSolver:  Solving for Uy, Initial residual = 0.201912, Final residual = 0.0181977, No Iterations 5
Pressure gradient source: uncorrected Ubar = 1.85, pressure gradient = 0.102392
GAMG:  Solving for p, Initial residual = 0.00401122, Final residual = 0.000289397, No Iterations 4
time step continuity errors : sum local = 5.52943e-17, global = -3.25261e-18, cumulative = -1.02614e-15
Pressure gradient source: uncorrected Ubar = 1.85, pressure gradient = 0.102566
smoothSolver:  Solving for omega, Initial residual = 1.7811e-05, Final residual = 7.31265e-06, No Iterations 2
smoothSolver:  Solving for k, Initial residual = 0.00153064, Final residual = 0.000140302, No Iterations 6
ExecutionTime = 13.18 s  ClockTime = 14 s

Time = 1989

smoothSolver:  Solving for Ux, Initial residual = 0.000244204, Final residual = 1.64499e-05, No Iterations 6
smoothSolver:  Solving for Uy, Initial residual = 0.405679, Final residual = 0.0270747, No Iterations 3
Pressure gradient source: uncorrected Ubar = 1.85, pressure gradient = 0.102356
GAMG:  Solving for p, Initial residual = 0.00256601, Final residual = 0.000249172, No Iterations 206
time step continuity errors : sum local = 2.05998e-17, global = -1.0842e-18, cumulative = -1.02723e-15
Pressure gradient source: uncorrected Ubar = 1.85, pressure gradient = 0.10253
smoothSolver:  Solving for omega, Initial residual = 1.7773e-05, Final residual = 7.29651e-06, No Iterations 2
smoothSolver:  Solving for k, Initial residual = 0.00152081, Final residual = 0.000139402, No Iterations 6
ExecutionTime = 13.19 s  ClockTime = 14 s

Time = 1990

smoothSolver:  Solving for Ux, Initial residual = 0.000243829, Final residual = 1.64229e-05, No Iterations 6
smoothSolver:  Solving for Uy, Initial residual = 0.212752, Final residual = 0.0187315, No Iterations 3
Pressure gradient source: uncorrected Ubar = 1.85, pressure gradient = 0.102321
GAMG:  Solving for p, Initial residual = 0.0227151, Final residual = 0.00219911, No Iterations 571
time step continuity errors : sum local = 2.60209e-17, global = -4.33681e-18, cumulative = -1.03156e-15
Pressure gradient source: uncorrected Ubar = 1.85, pressure gradient = 0.102494
smoothSolver:  Solving for omega, Initial residual = 1.77338e-05, Final residual = 7.28031e-06, No Iterations 2
smoothSolver:  Solving for k, Initial residual = 0.00151103, Final residual = 0.000138508, No Iterations 6
ExecutionTime = 13.2 s  ClockTime = 14 s

Time = 1991

smoothSolver:  Solving for Ux, Initial residual = 0.000243455, Final residual = 1.63958e-05, No Iterations 6
smoothSolver:  Solving for Uy, Initial residual = 0.304244, Final residual = 0.029955, No Iterations 5
Pressure gradient source: uncorrected Ubar = 1.85, pressure gradient = 0.102285
GAMG:  Solving for p, Initial residual = 0.00119356, Final residual = 0.000114599, No Iterations 170
time step continuity errors : sum local = 4.55365e-17, global = 2.1684e-18, cumulative = -1.0294e-15
Pressure gradient source: uncorrected Ubar = 1.85, pressure gradient = 0.102459
smoothSolver:  Solving for omega, Initial residual = 1.76952e-05, Final residual = 7.26407e-06, No Iterations 2
smoothSolver:  Solving for k, Initial residual = 0.00150131, Final residual = 0.000137618, No Iterations 6
ExecutionTime = 13.21 s  ClockTime = 14 s

Time = 1992

smoothSolver:  Solving for Ux, Initial residual = 0.000243081, Final residual = 1.63686e-05, No Iterations 6
smoothSolver:  Solving for Uy, Initial residual = 0.263833, Final residual = 0.0225446, No Iterations 4
Pressure gradient source: uncorrected Ubar = 1.85, pressure gradient = 0.102249
GAMG:  Solving for p, Initial residual = 0.00194257, Final residual = 0.000175603, No Iterations 7
time step continuity errors : sum local = 2.92735e-17, global = 1.0842e-18, cumulative = -1.02831e-15
Pressure gradient source: uncorrected Ubar = 1.85, pressure gradient = 0.102423
smoothSolver:  Solving for omega, Initial residual = 1.76569e-05, Final residual = 7.24789e-06, No Iterations 2
smoothSolver:  Solving for k, Initial residual = 0.00149164, Final residual = 0.000136733, No Iterations 6
ExecutionTime = 13.21 s  ClockTime = 14 s

Time = 1993

smoothSolver:  Solving for Ux, Initial residual = 0.000242705, Final residual = 1.63414e-05, No Iterations 6
smoothSolver:  Solving for Uy, Initial residual = 0.201198, Final residual = 0.0132597, No Iterations 5
Pressure gradient source: uncorrected Ubar = 1.85, pressure gradient = 0.102214
GAMG:  Solving for p, Initial residual = 0.00156061, Final residual = 0.000149319, No Iterations 403
time step continuity errors : sum local = 2.49366e-17, global = -3.25261e-18, cumulative = -1.03156e-15
Pressure gradient source: uncorrected Ubar = 1.85, pressure gradient = 0.102387
smoothSolver:  Solving for omega, Initial residual = 1.76183e-05, Final residual = 7.23256e-06, No Iterations 2
smoothSolver:  Solving for k, Initial residual = 0.00148203, Final residual = 0.000135854, No Iterations 6
ExecutionTime = 13.22 s  ClockTime = 14 s

Time = 1994

smoothSolver:  Solving for Ux, Initial residual = 0.000242328, Final residual = 1.63142e-05, No Iterations 6
smoothSolver:  Solving for Uy, Initial residual = 0.247468, Final residual = 0.0160484, No Iterations 5
Pressure gradient source: uncorrected Ubar = 1.85, pressure gradient = 0.102178
GAMG:  Solving for p, Initial residual = 0.00170134, Final residual = 0.000133968, No Iterations 9
time step continuity errors : sum local = 2.38524e-17, global = 2.1684e-18, cumulative = -1.0294e-15
Pressure gradient source: uncorrected Ubar = 1.85, pressure gradient = 0.102351
smoothSolver:  Solving for omega, Initial residual = 1.75819e-05, Final residual = 7.21717e-06, No Iterations 2
smoothSolver:  Solving for k, Initial residual = 0.00147247, Final residual = 0.000134979, No Iterations 6
ExecutionTime = 13.22 s  ClockTime = 14 s

Time = 1995

smoothSolver:  Solving for Ux, Initial residual = 0.00024195, Final residual = 1.62874e-05, No Iterations 6
smoothSolver:  Solving for Uy, Initial residual = 0.30395, Final residual = 0.0251605, No Iterations 5
Pressure gradient source: uncorrected Ubar = 1.85, pressure gradient = 0.102143
GAMG:  Solving for p, Initial residual = 0.00141842, Final residual = 0.000124528, No Iterations 506
time step continuity errors : sum local = 3.03577e-17, global = 0, cumulative = -1.0294e-15
Pressure gradient source: uncorrected Ubar = 1.85, pressure gradient = 0.102316
smoothSolver:  Solving for omega, Initial residual = 1.75454e-05, Final residual = 7.20174e-06, No Iterations 2
smoothSolver:  Solving for k, Initial residual = 0.00146297, Final residual = 0.000134109, No Iterations 6
ExecutionTime = 13.23 s  ClockTime = 14 s

Time = 1996

smoothSolver:  Solving for Ux, Initial residual = 0.000241571, Final residual = 1.62605e-05, No Iterations 6
smoothSolver:  Solving for Uy, Initial residual = 0.212367, Final residual = 0.0211246, No Iterations 4
Pressure gradient source: uncorrected Ubar = 1.85, pressure gradient = 0.102108
GAMG:  Solving for p, Initial residual = 0.00179875, Final residual = 0.000166507, No Iterations 13
time step continuity errors : sum local = 2.60209e-17, global = 0, cumulative = -1.0294e-15
Pressure gradient source: uncorrected Ubar = 1.85, pressure gradient = 0.10228
smoothSolver:  Solving for omega, Initial residual = 1.75088e-05, Final residual = 7.18626e-06, No Iterations 2
smoothSolver:  Solving for k, Initial residual = 0.00145351, Final residual = 0.000133244, No Iterations 6
ExecutionTime = 13.23 s  ClockTime = 14 s

Time = 1997

smoothSolver:  Solving for Ux, Initial residual = 0.000241191, Final residual = 1.62335e-05, No Iterations 6
smoothSolver:  Solving for Uy, Initial residual = 0.145905, Final residual = 0.0102276, No Iterations 5
Pressure gradient source: uncorrected Ubar = 1.85, pressure gradient = 0.102072
GAMG:  Solving for p, Initial residual = 0.00176638, Final residual = 0.000174276, No Iterations 381
time step continuity errors : sum local = 3.25261e-17, global = -2.1684e-18, cumulative = -1.03156e-15
Pressure gradient source: uncorrected Ubar = 1.85, pressure gradient = 0.102245
smoothSolver:  Solving for omega, Initial residual = 1.7472e-05, Final residual = 7.17072e-06, No Iterations 2
smoothSolver:  Solving for k, Initial residual = 0.00144411, Final residual = 0.000132383, No Iterations 6
ExecutionTime = 13.24 s  ClockTime = 14 s

Time = 1998

smoothSolver:  Solving for Ux, Initial residual = 0.00024081, Final residual = 1.62065e-05, No Iterations 6
smoothSolver:  Solving for Uy, Initial residual = 0.157287, Final residual = 0.0121918, No Iterations 5
Pressure gradient source: uncorrected Ubar = 1.85, pressure gradient = 0.102037
GAMG:  Solving for p, Initial residual = 0.00250611, Final residual = 0.00017939, No Iterations 9
time step continuity errors : sum local = 2.27682e-17, global = -1.0842e-18, cumulative = -1.03265e-15
Pressure gradient source: uncorrected Ubar = 1.85, pressure gradient = 0.102209
smoothSolver:  Solving for omega, Initial residual = 1.74352e-05, Final residual = 7.15514e-06, No Iterations 2
smoothSolver:  Solving for k, Initial residual = 0.00143476, Final residual = 0.000131528, No Iterations 6
ExecutionTime = 13.24 s  ClockTime = 14 s

Time = 1999

smoothSolver:  Solving for Ux, Initial residual = 0.000240428, Final residual = 1.61793e-05, No Iterations 6
smoothSolver:  Solving for Uy, Initial residual = 0.285144, Final residual = 0.0246193, No Iterations 5
Pressure gradient source: uncorrected Ubar = 1.85, pressure gradient = 0.102002
GAMG:  Solving for p, Initial residual = 0.00410797, Final residual = 0.000391084, No Iterations 619
time step continuity errors : sum local = 3.68629e-17, global = 0, cumulative = -1.03265e-15
Pressure gradient source: uncorrected Ubar = 1.85, pressure gradient = 0.102174
smoothSolver:  Solving for omega, Initial residual = 1.73983e-05, Final residual = 7.1395e-06, No Iterations 2
smoothSolver:  Solving for k, Initial residual = 0.00142547, Final residual = 0.000130677, No Iterations 6
ExecutionTime = 13.26 s  ClockTime = 14 s

Time = 2000

smoothSolver:  Solving for Ux, Initial residual = 0.000240044, Final residual = 1.61521e-05, No Iterations 6
smoothSolver:  Solving for Uy, Initial residual = 0.286631, Final residual = 0.0285075, No Iterations 5
Pressure gradient source: uncorrected Ubar = 1.85, pressure gradient = 0.101967
GAMG:  Solving for p, Initial residual = 0.000202002, Final residual = 1.98018e-05, No Iterations 864
time step continuity errors : sum local = 2.49366e-17, global = 3.25261e-18, cumulative = -1.0294e-15
Pressure gradient source: uncorrected Ubar = 1.85, pressure gradient = 0.102139
smoothSolver:  Solving for omega, Initial residual = 1.73612e-05, Final residual = 7.12382e-06, No Iterations 2
smoothSolver:  Solving for k, Initial residual = 0.00141622, Final residual = 0.000129831, No Iterations 6
ExecutionTime = 13.28 s  ClockTime = 14 s

End

