/*---------------------------------------------------------------------------*\
  =========                 |
  \\      /  F ield         | OpenFOAM: The Open Source CFD Toolbox
   \\    /   O peration     | Website:  https://openfoam.org
    \\  /    A nd           | Version:  7
     \\/     M anipulation  |
\*---------------------------------------------------------------------------*/
Build  : 7-3bcbaf946ae9
Exec   : simpleFoam
Date   : Jun 21 2022
Time   : 18:16:58
Host   : "Lubuntu"
PID    : 43971
I/O    : uncollated
Case   : /home/ensm_student/Documents/CFD/Rechnerubung/Week6/turbulent_channel
nProcs : 1
sigFpe : Enabling floating point exception trapping (FOAM_SIGFPE).
fileModificationChecking : Monitoring run-time modified files using timeStampMaster (fileModificationSkew 10)
allowSystemOperations : Allowing user-supplied system call operations

// * * * * * * * * * * * * * * * * * * * * * * * * * * * * * * * * * * * * * //
Create time

Create mesh for time = 0


SIMPLE: Convergence criteria found
        p: tolerance 0.01
        U: tolerance 0.001
        "(k|omega)": tolerance 0.001

Reading field p

Reading field U

Reading/calculating face flux field phi

Selecting incompressible transport model Newtonian
Selecting turbulence model type RAS
Selecting RAS turbulence model kOmegaSST
Selecting patchDistMethod meshWave
RAS
{
    RASModel        kOmegaSST;
    turbulence      on;
    printCoeffs     on;
    alphaK1         0.85;
    alphaK2         1;
    alphaOmega1     0.5;
    alphaOmega2     0.856;
    gamma1          0.555556;
    gamma2          0.44;
    beta1           0.075;
    beta2           0.0828;
    betaStar        0.09;
    a1              0.31;
    b1              1;
    c1              10;
    F3              false;
}

No MRF models present

No finite volume options present

Starting time loop

turbulenceFields stressComponents: storing fields:
    "devReff"

Time = 1

smoothSolver:  Solving for Ux, Initial residual = 1, Final residual = 0.0546898, No Iterations 1
smoothSolver:  Solving for Uy, Initial residual = 1, Final residual = 0.050683, No Iterations 1
GAMG:  Solving for p, Initial residual = 1, Final residual = 0.0829754, No Iterations 4
time step continuity errors : sum local = 0.0767523, global = -0.0190298, cumulative = -0.0190298
smoothSolver:  Solving for omega, Initial residual = 0.0310447, Final residual = 0.00103279, No Iterations 2
smoothSolver:  Solving for k, Initial residual = 1, Final residual = 0.0225707, No Iterations 2
ExecutionTime = 0.22 s  ClockTime = 0 s

Time = 2

smoothSolver:  Solving for Ux, Initial residual = 0.970911, Final residual = 0.0770662, No Iterations 5
smoothSolver:  Solving for Uy, Initial residual = 0.423487, Final residual = 0.0300383, No Iterations 4
GAMG:  Solving for p, Initial residual = 0.000583452, Final residual = 3.71134e-05, No Iterations 4
time step continuity errors : sum local = 0.039647, global = 0.011955, cumulative = -0.00707482
smoothSolver:  Solving for omega, Initial residual = 0.0145569, Final residual = 0.000373497, No Iterations 2
smoothSolver:  Solving for k, Initial residual = 0.25368, Final residual = 0.00947956, No Iterations 2
ExecutionTime = 0.28 s  ClockTime = 0 s

Time = 3

smoothSolver:  Solving for Ux, Initial residual = 0.74266, Final residual = 0.0567978, No Iterations 5
smoothSolver:  Solving for Uy, Initial residual = 0.503278, Final residual = 0.0312835, No Iterations 4
GAMG:  Solving for p, Initial residual = 0.00566586, Final residual = 0.000536711, No Iterations 3
time step continuity errors : sum local = 0.0431109, global = -0.00341542, cumulative = -0.0104902
smoothSolver:  Solving for omega, Initial residual = 0.0048941, Final residual = 0.000268866, No Iterations 2
smoothSolver:  Solving for k, Initial residual = 0.146905, Final residual = 0.00831202, No Iterations 2
ExecutionTime = 0.33 s  ClockTime = 0 s

Time = 4

smoothSolver:  Solving for Ux, Initial residual = 0.315797, Final residual = 0.0282229, No Iterations 3
smoothSolver:  Solving for Uy, Initial residual = 0.353865, Final residual = 0.0261826, No Iterations 3
GAMG:  Solving for p, Initial residual = 0.114765, Final residual = 0.0054351, No Iterations 2
time step continuity errors : sum local = 0.014784, global = -0.00204383, cumulative = -0.0125341
smoothSolver:  Solving for omega, Initial residual = 0.00438112, Final residual = 0.000174918, No Iterations 2
smoothSolver:  Solving for k, Initial residual = 0.13163, Final residual = 0.00819462, No Iterations 2
ExecutionTime = 0.38 s  ClockTime = 0 s

Time = 5

smoothSolver:  Solving for Ux, Initial residual = 0.272574, Final residual = 0.0268457, No Iterations 3
smoothSolver:  Solving for Uy, Initial residual = 0.40406, Final residual = 0.0372737, No Iterations 3
GAMG:  Solving for p, Initial residual = 0.0860281, Final residual = 0.00575372, No Iterations 2
time step continuity errors : sum local = 0.0140917, global = -0.00388956, cumulative = -0.0164236
smoothSolver:  Solving for omega, Initial residual = 0.0038019, Final residual = 0.000149423, No Iterations 2
smoothSolver:  Solving for k, Initial residual = 0.133739, Final residual = 0.0104826, No Iterations 2
ExecutionTime = 0.42 s  ClockTime = 0 s

Time = 6

smoothSolver:  Solving for Ux, Initial residual = 0.263977, Final residual = 0.0172587, No Iterations 4
smoothSolver:  Solving for Uy, Initial residual = 0.449628, Final residual = 0.0272542, No Iterations 4
GAMG:  Solving for p, Initial residual = 0.0484008, Final residual = 0.00182929, No Iterations 2
time step continuity errors : sum local = 0.00637095, global = -0.00106532, cumulative = -0.017489
smoothSolver:  Solving for omega, Initial residual = 0.00335297, Final residual = 0.000155914, No Iterations 2
smoothSolver:  Solving for k, Initial residual = 0.165887, Final residual = 0.0149125, No Iterations 2
ExecutionTime = 0.47 s  ClockTime = 0 s

Time = 7

smoothSolver:  Solving for Ux, Initial residual = 0.270069, Final residual = 0.0194251, No Iterations 4
smoothSolver:  Solving for Uy, Initial residual = 0.357689, Final residual = 0.0215599, No Iterations 4
GAMG:  Solving for p, Initial residual = 0.0374893, Final residual = 0.00126827, No Iterations 2
time step continuity errors : sum local = 0.00458923, global = -0.000114507, cumulative = -0.0176035
smoothSolver:  Solving for omega, Initial residual = 0.0029773, Final residual = 0.000138941, No Iterations 2
smoothSolver:  Solving for k, Initial residual = 0.182108, Final residual = 0.017452, No Iterations 2
ExecutionTime = 0.52 s  ClockTime = 0 s

Time = 8

smoothSolver:  Solving for Ux, Initial residual = 0.262285, Final residual = 0.0198052, No Iterations 4
smoothSolver:  Solving for Uy, Initial residual = 0.275533, Final residual = 0.0173943, No Iterations 4
GAMG:  Solving for p, Initial residual = 0.0324045, Final residual = 0.00127497, No Iterations 2
time step continuity errors : sum local = 0.00448731, global = -0.000197478, cumulative = -0.0178009
smoothSolver:  Solving for omega, Initial residual = 0.00266922, Final residual = 0.000132914, No Iterations 2
smoothSolver:  Solving for k, Initial residual = 0.208981, Final residual = 0.00799674, No Iterations 3
ExecutionTime = 0.56 s  ClockTime = 0 s

Time = 9

smoothSolver:  Solving for Ux, Initial residual = 0.250578, Final residual = 0.0200445, No Iterations 4
smoothSolver:  Solving for Uy, Initial residual = 0.256743, Final residual = 0.0155282, No Iterations 4
GAMG:  Solving for p, Initial residual = 0.0289857, Final residual = 0.000955361, No Iterations 2
time step continuity errors : sum local = 0.00325601, global = 3.94118e-05, cumulative = -0.0177615
smoothSolver:  Solving for omega, Initial residual = 0.00246881, Final residual = 0.000126101, No Iterations 2
smoothSolver:  Solving for k, Initial residual = 0.221587, Final residual = 0.019961, No Iterations 2
ExecutionTime = 0.61 s  ClockTime = 0 s

Time = 10

smoothSolver:  Solving for Ux, Initial residual = 0.213124, Final residual = 0.0175021, No Iterations 4
smoothSolver:  Solving for Uy, Initial residual = 0.273063, Final residual = 0.0170088, No Iterations 4
GAMG:  Solving for p, Initial residual = 0.0268643, Final residual = 0.00108462, No Iterations 2
time step continuity errors : sum local = 0.00344091, global = -0.000407567, cumulative = -0.0181691
smoothSolver:  Solving for omega, Initial residual = 0.00230459, Final residual = 0.000133166, No Iterations 2
smoothSolver:  Solving for k, Initial residual = 0.221012, Final residual = 0.010456, No Iterations 3
ExecutionTime = 0.66 s  ClockTime = 0 s

Time = 11

smoothSolver:  Solving for Ux, Initial residual = 0.163258, Final residual = 0.0128519, No Iterations 4
smoothSolver:  Solving for Uy, Initial residual = 0.25802, Final residual = 0.0160441, No Iterations 4
GAMG:  Solving for p, Initial residual = 0.0290504, Final residual = 0.000918593, No Iterations 2
time step continuity errors : sum local = 0.00238841, global = -0.000181152, cumulative = -0.0183503
smoothSolver:  Solving for omega, Initial residual = 0.00216162, Final residual = 0.000125791, No Iterations 2
smoothSolver:  Solving for k, Initial residual = 0.2213, Final residual = 0.0085316, No Iterations 3
ExecutionTime = 0.7 s  ClockTime = 0 s

Time = 12

smoothSolver:  Solving for Ux, Initial residual = 0.127213, Final residual = 0.00991326, No Iterations 4
smoothSolver:  Solving for Uy, Initial residual = 0.216682, Final residual = 0.0132529, No Iterations 4
GAMG:  Solving for p, Initial residual = 0.0280259, Final residual = 0.000437255, No Iterations 2
time step continuity errors : sum local = 0.00102988, global = -1.4401e-05, cumulative = -0.0183647
smoothSolver:  Solving for omega, Initial residual = 0.00206491, Final residual = 0.00012372, No Iterations 2
smoothSolver:  Solving for k, Initial residual = 0.218431, Final residual = 0.00908286, No Iterations 3
ExecutionTime = 0.75 s  ClockTime = 0 s

Time = 13

smoothSolver:  Solving for Ux, Initial residual = 0.103907, Final residual = 0.00833177, No Iterations 4
smoothSolver:  Solving for Uy, Initial residual = 0.188091, Final residual = 0.0112641, No Iterations 4
GAMG:  Solving for p, Initial residual = 0.0253747, Final residual = 0.000722379, No Iterations 2
time step continuity errors : sum local = 0.00164508, global = -0.000188235, cumulative = -0.0185529
smoothSolver:  Solving for omega, Initial residual = 0.00197596, Final residual = 0.000121721, No Iterations 2
smoothSolver:  Solving for k, Initial residual = 0.204924, Final residual = 0.00903206, No Iterations 3
ExecutionTime = 0.8 s  ClockTime = 0 s

Time = 14

smoothSolver:  Solving for Ux, Initial residual = 0.0855971, Final residual = 0.00687889, No Iterations 4
smoothSolver:  Solving for Uy, Initial residual = 0.175546, Final residual = 0.0102999, No Iterations 4
GAMG:  Solving for p, Initial residual = 0.0239979, Final residual = 0.00037826, No Iterations 2
time step continuity errors : sum local = 0.000804278, global = 1.58363e-05, cumulative = -0.0185371
smoothSolver:  Solving for omega, Initial residual = 0.00188756, Final residual = 0.000115135, No Iterations 2
smoothSolver:  Solving for k, Initial residual = 0.196101, Final residual = 0.00893533, No Iterations 3
ExecutionTime = 0.85 s  ClockTime = 0 s

Time = 15

smoothSolver:  Solving for Ux, Initial residual = 0.0726879, Final residual = 0.00593895, No Iterations 4
smoothSolver:  Solving for Uy, Initial residual = 0.160263, Final residual = 0.0096917, No Iterations 4
GAMG:  Solving for p, Initial residual = 0.0219265, Final residual = 0.00042517, No Iterations 2
time step continuity errors : sum local = 0.000863998, global = 9.60473e-06, cumulative = -0.0185274
smoothSolver:  Solving for omega, Initial residual = 0.00181895, Final residual = 0.000111719, No Iterations 2
smoothSolver:  Solving for k, Initial residual = 0.18112, Final residual = 0.00795581, No Iterations 3
ExecutionTime = 0.89 s  ClockTime = 0 s

Time = 16

smoothSolver:  Solving for Ux, Initial residual = 0.0628658, Final residual = 0.00517107, No Iterations 4
smoothSolver:  Solving for Uy, Initial residual = 0.141918, Final residual = 0.00870312, No Iterations 4
GAMG:  Solving for p, Initial residual = 0.0205715, Final residual = 0.00203203, No Iterations 1
time step continuity errors : sum local = 0.00390034, global = 0.000127646, cumulative = -0.0183998
smoothSolver:  Solving for omega, Initial residual = 0.00175605, Final residual = 0.000109895, No Iterations 2
smoothSolver:  Solving for k, Initial residual = 0.171582, Final residual = 0.00754392, No Iterations 3
ExecutionTime = 0.94 s  ClockTime = 1 s

Time = 17

smoothSolver:  Solving for Ux, Initial residual = 0.0552264, Final residual = 0.00467452, No Iterations 4
smoothSolver:  Solving for Uy, Initial residual = 0.121202, Final residual = 0.00782837, No Iterations 4
GAMG:  Solving for p, Initial residual = 0.0191895, Final residual = 0.000585754, No Iterations 2
time step continuity errors : sum local = 0.0011011, global = -5.75838e-05, cumulative = -0.0184574
smoothSolver:  Solving for omega, Initial residual = 0.0017014, Final residual = 0.000105328, No Iterations 2
smoothSolver:  Solving for k, Initial residual = 0.15825, Final residual = 0.00713982, No Iterations 3
ExecutionTime = 0.99 s  ClockTime = 1 s

Time = 18

smoothSolver:  Solving for Ux, Initial residual = 0.0476398, Final residual = 0.00394895, No Iterations 4
smoothSolver:  Solving for Uy, Initial residual = 0.114452, Final residual = 0.00682442, No Iterations 4
GAMG:  Solving for p, Initial residual = 0.0192224, Final residual = 0.000287483, No Iterations 2
time step continuity errors : sum local = 0.000482295, global = -5.71997e-05, cumulative = -0.0185146
smoothSolver:  Solving for omega, Initial residual = 0.00163218, Final residual = 0.000102005, No Iterations 2
smoothSolver:  Solving for k, Initial residual = 0.146146, Final residual = 0.00650807, No Iterations 3
ExecutionTime = 1.03 s  ClockTime = 1 s

Time = 19

smoothSolver:  Solving for Ux, Initial residual = 0.0426923, Final residual = 0.00362622, No Iterations 4
smoothSolver:  Solving for Uy, Initial residual = 0.104493, Final residual = 0.00646534, No Iterations 4
GAMG:  Solving for p, Initial residual = 0.0174776, Final residual = 0.00171679, No Iterations 1
time step continuity errors : sum local = 0.00282902, global = -7.49756e-05, cumulative = -0.0185896
smoothSolver:  Solving for omega, Initial residual = 0.00158695, Final residual = 0.000100075, No Iterations 2
smoothSolver:  Solving for k, Initial residual = 0.136498, Final residual = 0.00611379, No Iterations 3
ExecutionTime = 1.08 s  ClockTime = 1 s

Time = 20

smoothSolver:  Solving for Ux, Initial residual = 0.038592, Final residual = 0.00335476, No Iterations 4
smoothSolver:  Solving for Uy, Initial residual = 0.0918981, Final residual = 0.00599847, No Iterations 4
GAMG:  Solving for p, Initial residual = 0.0163428, Final residual = 0.000417436, No Iterations 2
time step continuity errors : sum local = 0.000677623, global = 3.71269e-05, cumulative = -0.0185524
smoothSolver:  Solving for omega, Initial residual = 0.00154186, Final residual = 9.55109e-05, No Iterations 2
smoothSolver:  Solving for k, Initial residual = 0.126282, Final residual = 0.0056447, No Iterations 3
ExecutionTime = 1.13 s  ClockTime = 1 s

Time = 21

smoothSolver:  Solving for Ux, Initial residual = 0.0346945, Final residual = 0.00298709, No Iterations 4
smoothSolver:  Solving for Uy, Initial residual = 0.086369, Final residual = 0.00542485, No Iterations 4
GAMG:  Solving for p, Initial residual = 0.0154705, Final residual = 0.00151272, No Iterations 1
time step continuity errors : sum local = 0.00232125, global = 4.25032e-05, cumulative = -0.0185099
smoothSolver:  Solving for omega, Initial residual = 0.00148561, Final residual = 9.37808e-05, No Iterations 2
smoothSolver:  Solving for k, Initial residual = 0.117073, Final residual = 0.00528509, No Iterations 3
ExecutionTime = 1.17 s  ClockTime = 1 s

Time = 22

smoothSolver:  Solving for Ux, Initial residual = 0.0315713, Final residual = 0.00278572, No Iterations 4
smoothSolver:  Solving for Uy, Initial residual = 0.0754096, Final residual = 0.00501138, No Iterations 4
GAMG:  Solving for p, Initial residual = 0.0143915, Final residual = 0.000366688, No Iterations 2
time step continuity errors : sum local = 0.000555301, global = 1.63411e-05, cumulative = -0.0184936
smoothSolver:  Solving for omega, Initial residual = 0.0014379, Final residual = 9.0919e-05, No Iterations 2
smoothSolver:  Solving for k, Initial residual = 0.11001, Final residual = 0.00485134, No Iterations 3
ExecutionTime = 1.22 s  ClockTime = 1 s

Time = 23

smoothSolver:  Solving for Ux, Initial residual = 0.0288484, Final residual = 0.00255177, No Iterations 4
smoothSolver:  Solving for Uy, Initial residual = 0.0725899, Final residual = 0.00469082, No Iterations 4
GAMG:  Solving for p, Initial residual = 0.0134281, Final residual = 0.00131536, No Iterations 1
time step continuity errors : sum local = 0.00190001, global = -9.92506e-05, cumulative = -0.0185928
smoothSolver:  Solving for omega, Initial residual = 0.00139667, Final residual = 8.80803e-05, No Iterations 2
smoothSolver:  Solving for k, Initial residual = 0.101948, Final residual = 0.0045056, No Iterations 3
ExecutionTime = 1.26 s  ClockTime = 1 s

Time = 24

smoothSolver:  Solving for Ux, Initial residual = 0.0265003, Final residual = 0.00239375, No Iterations 4
smoothSolver:  Solving for Uy, Initial residual = 0.0638086, Final residual = 0.00435417, No Iterations 4
GAMG:  Solving for p, Initial residual = 0.0124672, Final residual = 0.000408292, No Iterations 2
time step continuity errors : sum local = 0.00058278, global = 0.000120362, cumulative = -0.0184725
smoothSolver:  Solving for omega, Initial residual = 0.00135121, Final residual = 8.32755e-05, No Iterations 2
smoothSolver:  Solving for k, Initial residual = 0.0947415, Final residual = 0.00411913, No Iterations 3
ExecutionTime = 1.31 s  ClockTime = 1 s

Time = 25

smoothSolver:  Solving for Ux, Initial residual = 0.0241882, Final residual = 0.00215746, No Iterations 4
smoothSolver:  Solving for Uy, Initial residual = 0.0619213, Final residual = 0.00416472, No Iterations 4
GAMG:  Solving for p, Initial residual = 0.0118017, Final residual = 0.000233666, No Iterations 2
time step continuity errors : sum local = 0.000315049, global = 6.0139e-05, cumulative = -0.0184123
smoothSolver:  Solving for omega, Initial residual = 0.00130924, Final residual = 8.0583e-05, No Iterations 2
smoothSolver:  Solving for k, Initial residual = 0.0888982, Final residual = 0.00392779, No Iterations 3
ExecutionTime = 1.36 s  ClockTime = 1 s

Time = 26

smoothSolver:  Solving for Ux, Initial residual = 0.0225195, Final residual = 0.00204057, No Iterations 4
smoothSolver:  Solving for Uy, Initial residual = 0.0560045, Final residual = 0.00380845, No Iterations 4
GAMG:  Solving for p, Initial residual = 0.0105233, Final residual = 0.00100525, No Iterations 1
time step continuity errors : sum local = 0.0013381, global = 2.08691e-05, cumulative = -0.0183915
smoothSolver:  Solving for omega, Initial residual = 0.00127016, Final residual = 7.89238e-05, No Iterations 2
smoothSolver:  Solving for k, Initial residual = 0.0835768, Final residual = 0.00362449, No Iterations 3
ExecutionTime = 1.4 s  ClockTime = 1 s

Time = 27

smoothSolver:  Solving for Ux, Initial residual = 0.0209851, Final residual = 0.00193362, No Iterations 4
smoothSolver:  Solving for Uy, Initial residual = 0.0497659, Final residual = 0.00355714, No Iterations 4
GAMG:  Solving for p, Initial residual = 0.00979872, Final residual = 0.000291075, No Iterations 2
time step continuity errors : sum local = 0.000383485, global = 3.59336e-05, cumulative = -0.0183555
smoothSolver:  Solving for omega, Initial residual = 0.00122929, Final residual = 7.58934e-05, No Iterations 2
smoothSolver:  Solving for k, Initial residual = 0.0770771, Final residual = 0.00328266, No Iterations 3
ExecutionTime = 1.46 s  ClockTime = 1 s

Time = 28

smoothSolver:  Solving for Ux, Initial residual = 0.0192834, Final residual = 0.00174952, No Iterations 4
smoothSolver:  Solving for Uy, Initial residual = 0.0475882, Final residual = 0.00332416, No Iterations 4
GAMG:  Solving for p, Initial residual = 0.00945242, Final residual = 0.000214595, No Iterations 2
time step continuity errors : sum local = 0.000265073, global = 3.32585e-05, cumulative = -0.0183223
smoothSolver:  Solving for omega, Initial residual = 0.00118992, Final residual = 7.48653e-05, No Iterations 2
smoothSolver:  Solving for k, Initial residual = 0.0725022, Final residual = 0.00316057, No Iterations 3
ExecutionTime = 1.5 s  ClockTime = 1 s

Time = 29

smoothSolver:  Solving for Ux, Initial residual = 0.0181092, Final residual = 0.00166508, No Iterations 4
smoothSolver:  Solving for Uy, Initial residual = 0.0439751, Final residual = 0.00313677, No Iterations 4
GAMG:  Solving for p, Initial residual = 0.00856322, Final residual = 0.000828479, No Iterations 1
time step continuity errors : sum local = 0.00101524, global = -2.28019e-06, cumulative = -0.0183246
smoothSolver:  Solving for omega, Initial residual = 0.00115844, Final residual = 7.11973e-05, No Iterations 2
smoothSolver:  Solving for k, Initial residual = 0.0681534, Final residual = 0.00289831, No Iterations 3
ExecutionTime = 1.55 s  ClockTime = 1 s

Time = 30

smoothSolver:  Solving for Ux, Initial residual = 0.0169997, Final residual = 0.00158605, No Iterations 4
smoothSolver:  Solving for Uy, Initial residual = 0.0395738, Final residual = 0.00295775, No Iterations 4
GAMG:  Solving for p, Initial residual = 0.0080278, Final residual = 0.000196705, No Iterations 2
time step continuity errors : sum local = 0.000239307, global = 1.98685e-05, cumulative = -0.0183047
smoothSolver:  Solving for omega, Initial residual = 0.00111992, Final residual = 6.87381e-05, No Iterations 2
smoothSolver:  Solving for k, Initial residual = 0.0638292, Final residual = 0.00269741, No Iterations 3
ExecutionTime = 1.6 s  ClockTime = 1 s

Time = 31

smoothSolver:  Solving for Ux, Initial residual = 0.0160051, Final residual = 0.00149699, No Iterations 4
smoothSolver:  Solving for Uy, Initial residual = 0.0376693, Final residual = 0.0027458, No Iterations 4
GAMG:  Solving for p, Initial residual = 0.00732094, Final residual = 0.00021895, No Iterations 2
time step continuity errors : sum local = 0.000260581, global = 4.72237e-05, cumulative = -0.0182575
smoothSolver:  Solving for omega, Initial residual = 0.00108128, Final residual = 6.61326e-05, No Iterations 2
smoothSolver:  Solving for k, Initial residual = 0.0597289, Final residual = 0.00248476, No Iterations 3
ExecutionTime = 1.64 s  ClockTime = 1 s

Time = 32

smoothSolver:  Solving for Ux, Initial residual = 0.01499, Final residual = 0.00140394, No Iterations 4
smoothSolver:  Solving for Uy, Initial residual = 0.0352976, Final residual = 0.00264658, No Iterations 4
GAMG:  Solving for p, Initial residual = 0.00675168, Final residual = 0.000154559, No Iterations 2
time step continuity errors : sum local = 0.000179757, global = 1.02618e-05, cumulative = -0.0182472
smoothSolver:  Solving for omega, Initial residual = 0.00106092, Final residual = 6.4832e-05, No Iterations 2
smoothSolver:  Solving for k, Initial residual = 0.0562889, Final residual = 0.00233998, No Iterations 3
ExecutionTime = 1.69 s  ClockTime = 1 s

Time = 33

smoothSolver:  Solving for Ux, Initial residual = 0.0141325, Final residual = 0.00132858, No Iterations 4
smoothSolver:  Solving for Uy, Initial residual = 0.0326134, Final residual = 0.00248132, No Iterations 4
GAMG:  Solving for p, Initial residual = 0.00619546, Final residual = 0.000602713, No Iterations 1
time step continuity errors : sum local = 0.000687517, global = -1.9648e-05, cumulative = -0.0182669
smoothSolver:  Solving for omega, Initial residual = 0.00102846, Final residual = 6.21845e-05, No Iterations 2
smoothSolver:  Solving for k, Initial residual = 0.0529426, Final residual = 0.0021519, No Iterations 3
ExecutionTime = 1.73 s  ClockTime = 1 s

Time = 34

smoothSolver:  Solving for Ux, Initial residual = 0.013403, Final residual = 0.00127277, No Iterations 4
smoothSolver:  Solving for Uy, Initial residual = 0.0298458, Final residual = 0.00235889, No Iterations 4
GAMG:  Solving for p, Initial residual = 0.00579177, Final residual = 0.000210394, No Iterations 2
time step continuity errors : sum local = 0.000238755, global = 3.7259e-05, cumulative = -0.0182296
smoothSolver:  Solving for omega, Initial residual = 0.000996433, Final residual = 6.07796e-05, No Iterations 2
smoothSolver:  Solving for k, Initial residual = 0.0498644, Final residual = 0.00212471, No Iterations 3
ExecutionTime = 1.78 s  ClockTime = 1 s

Time = 35

smoothSolver:  Solving for Ux, Initial residual = 0.012605, Final residual = 0.00118705, No Iterations 4
smoothSolver:  Solving for Uy, Initial residual = 0.0285823, Final residual = 0.00223185, No Iterations 4
GAMG:  Solving for p, Initial residual = 0.00540341, Final residual = 8.88959e-05, No Iterations 2
time step continuity errors : sum local = 9.73925e-05, global = 1.45483e-05, cumulative = -0.018215
smoothSolver:  Solving for omega, Initial residual = 0.000968958, Final residual = 5.81577e-05, No Iterations 2
smoothSolver:  Solving for k, Initial residual = 0.0466329, Final residual = 0.00193121, No Iterations 3
ExecutionTime = 1.83 s  ClockTime = 1 s

Time = 36

smoothSolver:  Solving for Ux, Initial residual = 0.012007, Final residual = 0.00113939, No Iterations 4
smoothSolver:  Solving for Uy, Initial residual = 0.0268579, Final residual = 0.00213232, No Iterations 4
GAMG:  Solving for p, Initial residual = 0.00481368, Final residual = 0.000454752, No Iterations 1
time step continuity errors : sum local = 0.000494879, global = -8.78381e-07, cumulative = -0.0182159
smoothSolver:  Solving for omega, Initial residual = 0.000941511, Final residual = 5.67757e-05, No Iterations 2
smoothSolver:  Solving for k, Initial residual = 0.0439661, Final residual = 0.00176811, No Iterations 3
ExecutionTime = 1.88 s  ClockTime = 1 s

Time = 37

smoothSolver:  Solving for Ux, Initial residual = 0.0114471, Final residual = 0.00109559, No Iterations 4
smoothSolver:  Solving for Uy, Initial residual = 0.0248902, Final residual = 0.0020407, No Iterations 4
GAMG:  Solving for p, Initial residual = 0.00456566, Final residual = 0.000141539, No Iterations 2
time step continuity errors : sum local = 0.000153389, global = 1.89044e-05, cumulative = -0.018197
smoothSolver:  Solving for omega, Initial residual = 0.000916634, Final residual = 5.51121e-05, No Iterations 2
smoothSolver:  Solving for k, Initial residual = 0.0413716, Final residual = 0.00164899, No Iterations 3
ExecutionTime = 1.92 s  ClockTime = 2 s

Time = 38

smoothSolver:  Solving for Ux, Initial residual = 0.0108624, Final residual = 0.0010343, No Iterations 4
smoothSolver:  Solving for Uy, Initial residual = 0.0235633, Final residual = 0.00191065, No Iterations 4
GAMG:  Solving for p, Initial residual = 0.00419982, Final residual = 0.00010035, No Iterations 2
time step continuity errors : sum local = 0.000105891, global = 1.05296e-05, cumulative = -0.0181865
smoothSolver:  Solving for omega, Initial residual = 0.000888817, Final residual = 5.17423e-05, No Iterations 2
smoothSolver:  Solving for k, Initial residual = 0.0391121, Final residual = 0.00155805, No Iterations 3
ExecutionTime = 1.97 s  ClockTime = 2 s

Time = 39

smoothSolver:  Solving for Ux, Initial residual = 0.0103607, Final residual = 0.000990985, No Iterations 4
smoothSolver:  Solving for Uy, Initial residual = 0.0224993, Final residual = 0.00185957, No Iterations 4
GAMG:  Solving for p, Initial residual = 0.00382401, Final residual = 0.000375798, No Iterations 1
time step continuity errors : sum local = 0.000393363, global = 1.556e-06, cumulative = -0.0181849
smoothSolver:  Solving for omega, Initial residual = 0.000862485, Final residual = 5.09272e-05, No Iterations 2
smoothSolver:  Solving for k, Initial residual = 0.0368885, Final residual = 0.00144877, No Iterations 3
ExecutionTime = 2.01 s  ClockTime = 2 s

Time = 40

smoothSolver:  Solving for Ux, Initial residual = 0.00991407, Final residual = 0.00095452, No Iterations 4
smoothSolver:  Solving for Uy, Initial residual = 0.0209933, Final residual = 0.00178484, No Iterations 4
GAMG:  Solving for p, Initial residual = 0.00361144, Final residual = 0.000351993, No Iterations 1
time step continuity errors : sum local = 0.000367804, global = 2.60579e-05, cumulative = -0.0181589
smoothSolver:  Solving for omega, Initial residual = 0.000846274, Final residual = 5.04824e-05, No Iterations 2
smoothSolver:  Solving for k, Initial residual = 0.0348466, Final residual = 0.00137222, No Iterations 3
ExecutionTime = 2.06 s  ClockTime = 2 s

Time = 41

smoothSolver:  Solving for Ux, Initial residual = 0.00951384, Final residual = 0.000919334, No Iterations 4
smoothSolver:  Solving for Uy, Initial residual = 0.0199776, Final residual = 0.0017027, No Iterations 4
GAMG:  Solving for p, Initial residual = 0.0033127, Final residual = 0.000139425, No Iterations 2
time step continuity errors : sum local = 0.000145349, global = -3.18077e-05, cumulative = -0.0181907
smoothSolver:  Solving for omega, Initial residual = 0.000823105, Final residual = 4.76651e-05, No Iterations 2
smoothSolver:  Solving for k, Initial residual = 0.0330393, Final residual = 0.0012802, No Iterations 3
ExecutionTime = 2.1 s  ClockTime = 2 s

Time = 42

smoothSolver:  Solving for Ux, Initial residual = 0.00891152, Final residual = 0.000847777, No Iterations 4
smoothSolver:  Solving for Uy, Initial residual = 0.0188333, Final residual = 0.0015915, No Iterations 4
GAMG:  Solving for p, Initial residual = 0.00312035, Final residual = 0.00028829, No Iterations 1
time step continuity errors : sum local = 0.000285227, global = -4.64202e-05, cumulative = -0.0182371
smoothSolver:  Solving for omega, Initial residual = 0.000798649, Final residual = 4.60896e-05, No Iterations 2
smoothSolver:  Solving for k, Initial residual = 0.0313348, Final residual = 0.00122828, No Iterations 3
ExecutionTime = 2.15 s  ClockTime = 2 s

Time = 43

smoothSolver:  Solving for Ux, Initial residual = 0.00856095, Final residual = 0.000817195, No Iterations 4
smoothSolver:  Solving for Uy, Initial residual = 0.0178838, Final residual = 0.00153964, No Iterations 4
GAMG:  Solving for p, Initial residual = 0.0029241, Final residual = 0.000284774, No Iterations 1
time step continuity errors : sum local = 0.000281534, global = -3.44023e-05, cumulative = -0.0182715
smoothSolver:  Solving for omega, Initial residual = 0.000781341, Final residual = 4.58122e-05, No Iterations 2
smoothSolver:  Solving for k, Initial residual = 0.0297289, Final residual = 0.00112173, No Iterations 3
ExecutionTime = 2.19 s  ClockTime = 2 s

Time = 44

smoothSolver:  Solving for Ux, Initial residual = 0.00823763, Final residual = 0.000789364, No Iterations 4
smoothSolver:  Solving for Uy, Initial residual = 0.0172153, Final residual = 0.00150124, No Iterations 4
GAMG:  Solving for p, Initial residual = 0.00267246, Final residual = 6.73084e-05, No Iterations 2
time step continuity errors : sum local = 6.65439e-05, global = 5.68611e-06, cumulative = -0.0182658
smoothSolver:  Solving for omega, Initial residual = 0.000758947, Final residual = 4.31417e-05, No Iterations 2
smoothSolver:  Solving for k, Initial residual = 0.0282016, Final residual = 0.00107069, No Iterations 3
ExecutionTime = 2.24 s  ClockTime = 2 s

Time = 45

smoothSolver:  Solving for Ux, Initial residual = 0.00794948, Final residual = 0.000766075, No Iterations 4
smoothSolver:  Solving for Uy, Initial residual = 0.0166721, Final residual = 0.00145243, No Iterations 4
GAMG:  Solving for p, Initial residual = 0.00243065, Final residual = 5.604e-05, No Iterations 2
time step continuity errors : sum local = 5.54218e-05, global = 6.54044e-07, cumulative = -0.0182652
smoothSolver:  Solving for omega, Initial residual = 0.000738347, Final residual = 4.17825e-05, No Iterations 2
smoothSolver:  Solving for k, Initial residual = 0.0267787, Final residual = 0.00103942, No Iterations 3
ExecutionTime = 2.29 s  ClockTime = 2 s

Time = 46

smoothSolver:  Solving for Ux, Initial residual = 0.00765303, Final residual = 0.000739947, No Iterations 4
smoothSolver:  Solving for Uy, Initial residual = 0.0157651, Final residual = 0.00138166, No Iterations 4
GAMG:  Solving for p, Initial residual = 0.00218582, Final residual = 0.000173094, No Iterations 1
time step continuity errors : sum local = 0.000170985, global = 2.2501e-05, cumulative = -0.0182427
smoothSolver:  Solving for omega, Initial residual = 0.000719396, Final residual = 4.0369e-05, No Iterations 2
smoothSolver:  Solving for k, Initial residual = 0.0254754, Final residual = 0.000959017, No Iterations 3
ExecutionTime = 2.33 s  ClockTime = 2 s

Time = 47

smoothSolver:  Solving for Ux, Initial residual = 0.00736944, Final residual = 0.000713962, No Iterations 4
smoothSolver:  Solving for Uy, Initial residual = 0.0150235, Final residual = 0.00133914, No Iterations 4
GAMG:  Solving for p, Initial residual = 0.00204268, Final residual = 7.55803e-05, No Iterations 2
time step continuity errors : sum local = 7.44208e-05, global = -7.41415e-06, cumulative = -0.0182501
smoothSolver:  Solving for omega, Initial residual = 0.000705632, Final residual = 4.01702e-05, No Iterations 2
smoothSolver:  Solving for k, Initial residual = 0.0243591, Final residual = 0.000913065, No Iterations 3
ExecutionTime = 2.38 s  ClockTime = 2 s

Time = 48

smoothSolver:  Solving for Ux, Initial residual = 0.00696223, Final residual = 0.000665628, No Iterations 4
smoothSolver:  Solving for Uy, Initial residual = 0.0144589, Final residual = 0.00129486, No Iterations 4
GAMG:  Solving for p, Initial residual = 0.00194999, Final residual = 0.000184872, No Iterations 1
time step continuity errors : sum local = 0.00017503, global = -1.69995e-05, cumulative = -0.0182671
smoothSolver:  Solving for omega, Initial residual = 0.00068736, Final residual = 3.86818e-05, No Iterations 2
smoothSolver:  Solving for k, Initial residual = 0.0230022, Final residual = 0.000834658, No Iterations 3
ExecutionTime = 2.42 s  ClockTime = 2 s

Time = 49

smoothSolver:  Solving for Ux, Initial residual = 0.00671591, Final residual = 0.000643729, No Iterations 4
smoothSolver:  Solving for Uy, Initial residual = 0.0138543, Final residual = 0.00125354, No Iterations 4
GAMG:  Solving for p, Initial residual = 0.00185578, Final residual = 4.39631e-05, No Iterations 2
time step continuity errors : sum local = 4.1606e-05, global = 7.74091e-06, cumulative = -0.0182593
smoothSolver:  Solving for omega, Initial residual = 0.000671729, Final residual = 3.6899e-05, No Iterations 2
smoothSolver:  Solving for k, Initial residual = 0.0220701, Final residual = 0.000801281, No Iterations 3
ExecutionTime = 2.47 s  ClockTime = 2 s

Time = 50

smoothSolver:  Solving for Ux, Initial residual = 0.00649022, Final residual = 0.00062423, No Iterations 4
smoothSolver:  Solving for Uy, Initial residual = 0.0133007, Final residual = 0.00120327, No Iterations 4
GAMG:  Solving for p, Initial residual = 0.00166513, Final residual = 3.58752e-05, No Iterations 2
time step continuity errors : sum local = 3.39543e-05, global = -1.42999e-06, cumulative = -0.0182608
smoothSolver:  Solving for omega, Initial residual = 0.00065589, Final residual = 3.68739e-05, No Iterations 2
smoothSolver:  Solving for k, Initial residual = 0.0211136, Final residual = 0.000773663, No Iterations 3
ExecutionTime = 2.52 s  ClockTime = 2 s

Time = 51

smoothSolver:  Solving for Ux, Initial residual = 0.00626253, Final residual = 0.00060355, No Iterations 4
smoothSolver:  Solving for Uy, Initial residual = 0.0127852, Final residual = 0.00116067, No Iterations 4
GAMG:  Solving for p, Initial residual = 0.00153932, Final residual = 0.000125859, No Iterations 1
time step continuity errors : sum local = 0.000118617, global = 6.60717e-06, cumulative = -0.0182542
smoothSolver:  Solving for omega, Initial residual = 0.000640925, Final residual = 3.61251e-05, No Iterations 2
smoothSolver:  Solving for k, Initial residual = 0.0201607, Final residual = 0.000739313, No Iterations 3
ExecutionTime = 2.56 s  ClockTime = 2 s

Time = 52

smoothSolver:  Solving for Ux, Initial residual = 0.00604802, Final residual = 0.000584295, No Iterations 4
smoothSolver:  Solving for Uy, Initial residual = 0.012298, Final residual = 0.0011284, No Iterations 4
GAMG:  Solving for p, Initial residual = 0.0014657, Final residual = 5.18236e-05, No Iterations 2
time step continuity errors : sum local = 4.87886e-05, global = -3.50919e-06, cumulative = -0.0182577
smoothSolver:  Solving for omega, Initial residual = 0.000627527, Final residual = 3.41906e-05, No Iterations 2
smoothSolver:  Solving for k, Initial residual = 0.0192816, Final residual = 0.00191968, No Iterations 2
ExecutionTime = 2.61 s  ClockTime = 2 s

Time = 53

smoothSolver:  Solving for Ux, Initial residual = 0.00576215, Final residual = 0.00055203, No Iterations 4
smoothSolver:  Solving for Uy, Initial residual = 0.0117508, Final residual = 0.00108586, No Iterations 4
GAMG:  Solving for p, Initial residual = 0.00135921, Final residual = 0.000130655, No Iterations 1
time step continuity errors : sum local = 0.000119836, global = -5.04603e-06, cumulative = -0.0182627
smoothSolver:  Solving for omega, Initial residual = 0.000617544, Final residual = 3.35094e-05, No Iterations 2
smoothSolver:  Solving for k, Initial residual = 0.018476, Final residual = 0.000764193, No Iterations 3
ExecutionTime = 2.65 s  ClockTime = 2 s

Time = 54

smoothSolver:  Solving for Ux, Initial residual = 0.00557326, Final residual = 0.000534974, No Iterations 4
smoothSolver:  Solving for Uy, Initial residual = 0.0113438, Final residual = 0.00105664, No Iterations 4
GAMG:  Solving for p, Initial residual = 0.00131382, Final residual = 3.39456e-05, No Iterations 2
time step continuity errors : sum local = 3.11454e-05, global = 5.63157e-06, cumulative = -0.0182571
smoothSolver:  Solving for omega, Initial residual = 0.000597175, Final residual = 3.22506e-05, No Iterations 2
smoothSolver:  Solving for k, Initial residual = 0.0175825, Final residual = 0.00164912, No Iterations 2
ExecutionTime = 2.7 s  ClockTime = 2 s

Time = 55

smoothSolver:  Solving for Ux, Initial residual = 0.00538503, Final residual = 0.000517846, No Iterations 4
smoothSolver:  Solving for Uy, Initial residual = 0.0109611, Final residual = 0.0010198, No Iterations 4
GAMG:  Solving for p, Initial residual = 0.00120526, Final residual = 0.000106135, No Iterations 1
time step continuity errors : sum local = 9.69783e-05, global = 1.02225e-05, cumulative = -0.0182469
smoothSolver:  Solving for omega, Initial residual = 0.000588341, Final residual = 3.20557e-05, No Iterations 2
smoothSolver:  Solving for k, Initial residual = 0.0169272, Final residual = 0.000659534, No Iterations 3
ExecutionTime = 2.74 s  ClockTime = 2 s

Time = 56

smoothSolver:  Solving for Ux, Initial residual = 0.00520794, Final residual = 0.000501953, No Iterations 4
smoothSolver:  Solving for Uy, Initial residual = 0.0106186, Final residual = 0.000992719, No Iterations 4
GAMG:  Solving for p, Initial residual = 0.00116428, Final residual = 3.59438e-05, No Iterations 2
time step continuity errors : sum local = 3.28224e-05, global = -3.3441e-07, cumulative = -0.0182472
smoothSolver:  Solving for omega, Initial residual = 0.000575504, Final residual = 3.14369e-05, No Iterations 2
smoothSolver:  Solving for k, Initial residual = 0.0162017, Final residual = 0.00151884, No Iterations 2
ExecutionTime = 2.79 s  ClockTime = 2 s

Time = 57

smoothSolver:  Solving for Ux, Initial residual = 0.00499574, Final residual = 0.00047892, No Iterations 4
smoothSolver:  Solving for Uy, Initial residual = 0.0102046, Final residual = 0.000961655, No Iterations 4
GAMG:  Solving for p, Initial residual = 0.00106, Final residual = 0.000104488, No Iterations 1
time step continuity errors : sum local = 9.3761e-05, global = -2.15555e-06, cumulative = -0.0182494
smoothSolver:  Solving for omega, Initial residual = 0.000561084, Final residual = 3.03612e-05, No Iterations 2
smoothSolver:  Solving for k, Initial residual = 0.015691, Final residual = 0.00062378, No Iterations 3
ExecutionTime = 2.84 s  ClockTime = 2 s

Time = 58

smoothSolver:  Solving for Ux, Initial residual = 0.00483938, Final residual = 0.000464662, No Iterations 4
smoothSolver:  Solving for Uy, Initial residual = 0.00991682, Final residual = 0.000936314, No Iterations 4
GAMG:  Solving for p, Initial residual = 0.0010564, Final residual = 9.21149e-05, No Iterations 1
time step continuity errors : sum local = 8.27267e-05, global = 7.20613e-06, cumulative = -0.0182421
smoothSolver:  Solving for omega, Initial residual = 0.000550602, Final residual = 3.00509e-05, No Iterations 2
smoothSolver:  Solving for k, Initial residual = 0.0149404, Final residual = 0.00138244, No Iterations 2
ExecutionTime = 2.88 s  ClockTime = 2 s

Time = 59

smoothSolver:  Solving for Ux, Initial residual = 0.00468101, Final residual = 0.000449961, No Iterations 4
smoothSolver:  Solving for Uy, Initial residual = 0.00957188, Final residual = 0.000906089, No Iterations 4
GAMG:  Solving for p, Initial residual = 0.000958531, Final residual = 2.66518e-05, No Iterations 2
time step continuity errors : sum local = 2.39011e-05, global = -2.18698e-07, cumulative = -0.0182424
smoothSolver:  Solving for omega, Initial residual = 0.000540645, Final residual = 2.94057e-05, No Iterations 2
smoothSolver:  Solving for k, Initial residual = 0.0144679, Final residual = 0.000547801, No Iterations 3
ExecutionTime = 2.93 s  ClockTime = 3 s

Time = 60

smoothSolver:  Solving for Ux, Initial residual = 0.00449715, Final residual = 0.000429215, No Iterations 4
smoothSolver:  Solving for Uy, Initial residual = 0.00921219, Final residual = 0.000871701, No Iterations 4
GAMG:  Solving for p, Initial residual = 0.000909094, Final residual = 8.97239e-05, No Iterations 1
time step continuity errors : sum local = 7.91761e-05, global = -9.18973e-07, cumulative = -0.0182433
smoothSolver:  Solving for omega, Initial residual = 0.000526498, Final residual = 2.82904e-05, No Iterations 2
smoothSolver:  Solving for k, Initial residual = 0.0138674, Final residual = 0.00129492, No Iterations 2
ExecutionTime = 2.97 s  ClockTime = 3 s

Time = 61

smoothSolver:  Solving for Ux, Initial residual = 0.00435644, Final residual = 0.000416728, No Iterations 4
smoothSolver:  Solving for Uy, Initial residual = 0.00893227, Final residual = 0.000851352, No Iterations 4
GAMG:  Solving for p, Initial residual = 0.000884358, Final residual = 7.27067e-05, No Iterations 1
time step continuity errors : sum local = 6.41926e-05, global = 5.0427e-06, cumulative = -0.0182382
smoothSolver:  Solving for omega, Initial residual = 0.000515209, Final residual = 2.72365e-05, No Iterations 2
smoothSolver:  Solving for k, Initial residual = 0.0134291, Final residual = 0.000501737, No Iterations 3
ExecutionTime = 3.01 s  ClockTime = 3 s

Time = 62

smoothSolver:  Solving for Ux, Initial residual = 0.00422091, Final residual = 0.000404279, No Iterations 4
smoothSolver:  Solving for Uy, Initial residual = 0.00873593, Final residual = 0.000829062, No Iterations 4
GAMG:  Solving for p, Initial residual = 0.000842229, Final residual = 2.13733e-05, No Iterations 2
time step continuity errors : sum local = 1.88419e-05, global = 1.51113e-07, cumulative = -0.0182381
smoothSolver:  Solving for omega, Initial residual = 0.000504804, Final residual = 2.67961e-05, No Iterations 2
smoothSolver:  Solving for k, Initial residual = 0.0128575, Final residual = 0.00115562, No Iterations 2
ExecutionTime = 3.06 s  ClockTime = 3 s

Time = 63

smoothSolver:  Solving for Ux, Initial residual = 0.00406322, Final residual = 0.000387011, No Iterations 4
smoothSolver:  Solving for Uy, Initial residual = 0.00838745, Final residual = 0.000802671, No Iterations 4
GAMG:  Solving for p, Initial residual = 0.000777421, Final residual = 7.3684e-05, No Iterations 1
time step continuity errors : sum local = 6.41673e-05, global = 7.52145e-07, cumulative = -0.0182373
smoothSolver:  Solving for omega, Initial residual = 0.000494999, Final residual = 2.61014e-05, No Iterations 2
smoothSolver:  Solving for k, Initial residual = 0.0124585, Final residual = 0.00046485, No Iterations 3
ExecutionTime = 3.11 s  ClockTime = 3 s

Time = 64

smoothSolver:  Solving for Ux, Initial residual = 0.00394034, Final residual = 0.000375973, No Iterations 4
smoothSolver:  Solving for Uy, Initial residual = 0.0081883, Final residual = 0.000783834, No Iterations 4
GAMG:  Solving for p, Initial residual = 0.00077233, Final residual = 7.18897e-05, No Iterations 1
time step continuity errors : sum local = 6.26622e-05, global = 5.25523e-06, cumulative = -0.0182321
smoothSolver:  Solving for omega, Initial residual = 0.000484949, Final residual = 2.58875e-05, No Iterations 2
smoothSolver:  Solving for k, Initial residual = 0.0119527, Final residual = 0.00109214, No Iterations 2
ExecutionTime = 3.15 s  ClockTime = 3 s

Time = 65

smoothSolver:  Solving for Ux, Initial residual = 0.0038144, Final residual = 0.000363649, No Iterations 4
smoothSolver:  Solving for Uy, Initial residual = 0.00793664, Final residual = 0.000761095, No Iterations 4
GAMG:  Solving for p, Initial residual = 0.000707998, Final residual = 6.83753e-05, No Iterations 1
time step continuity errors : sum local = 5.93561e-05, global = 6.52921e-07, cumulative = -0.0182314
smoothSolver:  Solving for omega, Initial residual = 0.000474133, Final residual = 2.4998e-05, No Iterations 2
smoothSolver:  Solving for k, Initial residual = 0.0115751, Final residual = 0.00112488, No Iterations 2
ExecutionTime = 3.19 s  ClockTime = 3 s

Time = 66

smoothSolver:  Solving for Ux, Initial residual = 0.00368335, Final residual = 0.000350054, No Iterations 4
smoothSolver:  Solving for Uy, Initial residual = 0.00768919, Final residual = 0.000740472, No Iterations 4
GAMG:  Solving for p, Initial residual = 0.000672886, Final residual = 5.11746e-05, No Iterations 1
time step continuity errors : sum local = 4.40677e-05, global = 3.43022e-06, cumulative = -0.018228
smoothSolver:  Solving for omega, Initial residual = 0.000462602, Final residual = 2.40925e-05, No Iterations 2
smoothSolver:  Solving for k, Initial residual = 0.0111838, Final residual = 0.000414266, No Iterations 3
ExecutionTime = 3.24 s  ClockTime = 3 s

Time = 67

smoothSolver:  Solving for Ux, Initial residual = 0.00357042, Final residual = 0.000339302, No Iterations 4
smoothSolver:  Solving for Uy, Initial residual = 0.00750274, Final residual = 0.000721131, No Iterations 4
GAMG:  Solving for p, Initial residual = 0.000668948, Final residual = 6.28414e-05, No Iterations 1
time step continuity errors : sum local = 5.4041e-05, global = 7.92658e-07, cumulative = -0.0182272
smoothSolver:  Solving for omega, Initial residual = 0.000452943, Final residual = 2.40032e-05, No Iterations 2
smoothSolver:  Solving for k, Initial residual = 0.0107322, Final residual = 0.000919413, No Iterations 2
ExecutionTime = 3.28 s  ClockTime = 3 s

Time = 68

smoothSolver:  Solving for Ux, Initial residual = 0.00345093, Final residual = 0.000327055, No Iterations 4
smoothSolver:  Solving for Uy, Initial residual = 0.00727088, Final residual = 0.000700579, No Iterations 4
GAMG:  Solving for p, Initial residual = 0.000620726, Final residual = 4.86811e-05, No Iterations 1
time step continuity errors : sum local = 4.15923e-05, global = 2.72804e-06, cumulative = -0.0182245
smoothSolver:  Solving for omega, Initial residual = 0.00044566, Final residual = 2.31506e-05, No Iterations 2
smoothSolver:  Solving for k, Initial residual = 0.0104341, Final residual = 0.00100886, No Iterations 2
ExecutionTime = 3.33 s  ClockTime = 3 s

Time = 69

smoothSolver:  Solving for Ux, Initial residual = 0.00334146, Final residual = 0.000316556, No Iterations 4
smoothSolver:  Solving for Uy, Initial residual = 0.00702756, Final residual = 0.000683372, No Iterations 4
GAMG:  Solving for p, Initial residual = 0.000595485, Final residual = 5.05947e-05, No Iterations 1
time step continuity errors : sum local = 4.3103e-05, global = 7.07026e-07, cumulative = -0.0182238
smoothSolver:  Solving for omega, Initial residual = 0.000434123, Final residual = 2.23671e-05, No Iterations 2
smoothSolver:  Solving for k, Initial residual = 0.0100349, Final residual = 0.000974193, No Iterations 2
ExecutionTime = 3.37 s  ClockTime = 3 s

Time = 70

smoothSolver:  Solving for Ux, Initial residual = 0.00323549, Final residual = 0.000306298, No Iterations 4
smoothSolver:  Solving for Uy, Initial residual = 0.00684349, Final residual = 0.000666479, No Iterations 4
GAMG:  Solving for p, Initial residual = 0.000571109, Final residual = 4.96213e-05, No Iterations 1
time step continuity errors : sum local = 4.21251e-05, global = 2.27984e-06, cumulative = -0.0182215
smoothSolver:  Solving for omega, Initial residual = 0.000426509, Final residual = 2.2097e-05, No Iterations 2
smoothSolver:  Solving for k, Initial residual = 0.00973022, Final residual = 0.000931475, No Iterations 2
ExecutionTime = 3.41 s  ClockTime = 3 s

Time = 71

smoothSolver:  Solving for Ux, Initial residual = 0.00313067, Final residual = 0.000295828, No Iterations 4
smoothSolver:  Solving for Uy, Initial residual = 0.00667198, Final residual = 0.000649994, No Iterations 4
GAMG:  Solving for p, Initial residual = 0.000550095, Final residual = 4.42962e-05, No Iterations 1
time step continuity errors : sum local = 3.7435e-05, global = 3.56114e-07, cumulative = -0.0182211
smoothSolver:  Solving for omega, Initial residual = 0.000418602, Final residual = 2.19475e-05, No Iterations 2
smoothSolver:  Solving for k, Initial residual = 0.0093894, Final residual = 0.000881139, No Iterations 2
ExecutionTime = 3.46 s  ClockTime = 3 s

Time = 72

smoothSolver:  Solving for Ux, Initial residual = 0.00303313, Final residual = 0.000286283, No Iterations 4
smoothSolver:  Solving for Uy, Initial residual = 0.00650108, Final residual = 0.000632634, No Iterations 4
GAMG:  Solving for p, Initial residual = 0.00052645, Final residual = 4.51677e-05, No Iterations 1
time step continuity errors : sum local = 3.80484e-05, global = 2.41493e-06, cumulative = -0.0182187
smoothSolver:  Solving for omega, Initial residual = 0.000408652, Final residual = 2.09543e-05, No Iterations 2
smoothSolver:  Solving for k, Initial residual = 0.00914403, Final residual = 0.000880062, No Iterations 2
ExecutionTime = 3.5 s  ClockTime = 3 s

Time = 73

smoothSolver:  Solving for Ux, Initial residual = 0.00293675, Final residual = 0.000276812, No Iterations 4
smoothSolver:  Solving for Uy, Initial residual = 0.0063146, Final residual = 0.000617368, No Iterations 4
GAMG:  Solving for p, Initial residual = 0.000501698, Final residual = 4.22735e-05, No Iterations 1
time step continuity errors : sum local = 3.54916e-05, global = -4.26729e-07, cumulative = -0.0182191
smoothSolver:  Solving for omega, Initial residual = 0.000401394, Final residual = 2.08536e-05, No Iterations 2
smoothSolver:  Solving for k, Initial residual = 0.00885881, Final residual = 0.000843232, No Iterations 2
ExecutionTime = 3.54 s  ClockTime = 3 s

Time = 74

smoothSolver:  Solving for Ux, Initial residual = 0.00284368, Final residual = 0.000267693, No Iterations 4
smoothSolver:  Solving for Uy, Initial residual = 0.00613278, Final residual = 0.000601566, No Iterations 4
GAMG:  Solving for p, Initial residual = 0.000490206, Final residual = 4.11022e-05, No Iterations 1
time step continuity errors : sum local = 3.43812e-05, global = 2.5018e-06, cumulative = -0.0182166
smoothSolver:  Solving for omega, Initial residual = 0.000392778, Final residual = 2.01403e-05, No Iterations 2
smoothSolver:  Solving for k, Initial residual = 0.00854451, Final residual = 0.000795479, No Iterations 2
ExecutionTime = 3.59 s  ClockTime = 3 s

Time = 75

smoothSolver:  Solving for Ux, Initial residual = 0.00275595, Final residual = 0.000259053, No Iterations 4
smoothSolver:  Solving for Uy, Initial residual = 0.00597893, Final residual = 0.000586165, No Iterations 4
GAMG:  Solving for p, Initial residual = 0.000470568, Final residual = 4.02672e-05, No Iterations 1
time step continuity errors : sum local = 3.35947e-05, global = -1.32394e-06, cumulative = -0.018218
smoothSolver:  Solving for omega, Initial residual = 0.000384989, Final residual = 1.9798e-05, No Iterations 2
smoothSolver:  Solving for k, Initial residual = 0.00828463, Final residual = 0.000766072, No Iterations 2
ExecutionTime = 3.63 s  ClockTime = 3 s

Time = 76

smoothSolver:  Solving for Ux, Initial residual = 0.00266871, Final residual = 0.00025047, No Iterations 4
smoothSolver:  Solving for Uy, Initial residual = 0.00583228, Final residual = 0.000573853, No Iterations 4
GAMG:  Solving for p, Initial residual = 0.000457313, Final residual = 3.97951e-05, No Iterations 1
time step continuity errors : sum local = 3.30828e-05, global = 3.48124e-06, cumulative = -0.0182145
smoothSolver:  Solving for omega, Initial residual = 0.00037886, Final residual = 1.97318e-05, No Iterations 2
smoothSolver:  Solving for k, Initial residual = 0.00802603, Final residual = 0.000732681, No Iterations 2
ExecutionTime = 3.68 s  ClockTime = 3 s

Time = 77

smoothSolver:  Solving for Ux, Initial residual = 0.00258537, Final residual = 0.000242276, No Iterations 4
smoothSolver:  Solving for Uy, Initial residual = 0.00568276, Final residual = 0.000557166, No Iterations 4
GAMG:  Solving for p, Initial residual = 0.000450109, Final residual = 3.96811e-05, No Iterations 1
time step continuity errors : sum local = 3.28965e-05, global = -2.12115e-06, cumulative = -0.0182166
smoothSolver:  Solving for omega, Initial residual = 0.000370261, Final residual = 1.87321e-05, No Iterations 2
smoothSolver:  Solving for k, Initial residual = 0.00781269, Final residual = 0.000718127, No Iterations 2
ExecutionTime = 3.72 s  ClockTime = 3 s

Time = 78

smoothSolver:  Solving for Ux, Initial residual = 0.00250372, Final residual = 0.000234327, No Iterations 4
smoothSolver:  Solving for Uy, Initial residual = 0.00555655, Final residual = 0.000546909, No Iterations 4
GAMG:  Solving for p, Initial residual = 0.000438317, Final residual = 3.887e-05, No Iterations 1
time step continuity errors : sum local = 3.21196e-05, global = 4.22387e-06, cumulative = -0.0182124
smoothSolver:  Solving for omega, Initial residual = 0.000362993, Final residual = 1.82389e-05, No Iterations 2
smoothSolver:  Solving for k, Initial residual = 0.00756996, Final residual = 0.000698836, No Iterations 2
ExecutionTime = 3.76 s  ClockTime = 3 s

Time = 79

smoothSolver:  Solving for Ux, Initial residual = 0.00242579, Final residual = 0.000226657, No Iterations 4
smoothSolver:  Solving for Uy, Initial residual = 0.00540755, Final residual = 0.000531457, No Iterations 4
GAMG:  Solving for p, Initial residual = 0.000427541, Final residual = 3.85355e-05, No Iterations 1
time step continuity errors : sum local = 3.17669e-05, global = -2.67804e-06, cumulative = -0.0182151
smoothSolver:  Solving for omega, Initial residual = 0.000356996, Final residual = 1.80961e-05, No Iterations 2
smoothSolver:  Solving for k, Initial residual = 0.00736453, Final residual = 0.000671155, No Iterations 2
ExecutionTime = 3.81 s  ClockTime = 3 s

Time = 80

smoothSolver:  Solving for Ux, Initial residual = 0.00234858, Final residual = 0.000219125, No Iterations 4
smoothSolver:  Solving for Uy, Initial residual = 0.00528344, Final residual = 0.000521452, No Iterations 4
GAMG:  Solving for p, Initial residual = 0.000415624, Final residual = 3.6497e-05, No Iterations 1
time step continuity errors : sum local = 2.99831e-05, global = 5.07452e-06, cumulative = -0.01821
smoothSolver:  Solving for omega, Initial residual = 0.000349409, Final residual = 1.73492e-05, No Iterations 2
smoothSolver:  Solving for k, Initial residual = 0.007154, Final residual = 0.000649416, No Iterations 2
ExecutionTime = 3.85 s  ClockTime = 3 s

Time = 81

smoothSolver:  Solving for Ux, Initial residual = 0.00227699, Final residual = 0.00021204, No Iterations 4
smoothSolver:  Solving for Uy, Initial residual = 0.00514343, Final residual = 0.000507664, No Iterations 4
GAMG:  Solving for p, Initial residual = 0.000406246, Final residual = 3.75211e-05, No Iterations 1
time step continuity errors : sum local = 3.07695e-05, global = -3.44076e-06, cumulative = -0.0182134
smoothSolver:  Solving for omega, Initial residual = 0.000343985, Final residual = 1.78477e-05, No Iterations 2
smoothSolver:  Solving for k, Initial residual = 0.00693337, Final residual = 0.000613818, No Iterations 2
ExecutionTime = 3.9 s  ClockTime = 3 s

Time = 82

smoothSolver:  Solving for Ux, Initial residual = 0.00220508, Final residual = 0.000204897, No Iterations 4
smoothSolver:  Solving for Uy, Initial residual = 0.00504287, Final residual = 0.000497575, No Iterations 4
GAMG:  Solving for p, Initial residual = 0.000396226, Final residual = 3.43556e-05, No Iterations 1
time step continuity errors : sum local = 2.80714e-05, global = 5.81081e-06, cumulative = -0.0182076
smoothSolver:  Solving for omega, Initial residual = 0.000334737, Final residual = 1.63864e-05, No Iterations 2
smoothSolver:  Solving for k, Initial residual = 0.00673035, Final residual = 0.000596176, No Iterations 2
ExecutionTime = 3.94 s  ClockTime = 4 s

Time = 83

smoothSolver:  Solving for Ux, Initial residual = 0.00213825, Final residual = 0.000198448, No Iterations 4
smoothSolver:  Solving for Uy, Initial residual = 0.00491034, Final residual = 0.00048538, No Iterations 4
GAMG:  Solving for p, Initial residual = 0.000384492, Final residual = 7.39004e-06, No Iterations 2
time step continuity errors : sum local = 6.03215e-06, global = 1.4108e-06, cumulative = -0.0182062
smoothSolver:  Solving for omega, Initial residual = 0.000329248, Final residual = 1.64687e-05, No Iterations 2
smoothSolver:  Solving for k, Initial residual = 0.00653828, Final residual = 0.000578712, No Iterations 2
ExecutionTime = 3.98 s  ClockTime = 4 s

Time = 84

smoothSolver:  Solving for Ux, Initial residual = 0.00206831, Final residual = 0.000191281, No Iterations 4
smoothSolver:  Solving for Uy, Initial residual = 0.00478535, Final residual = 0.000474031, No Iterations 4
GAMG:  Solving for p, Initial residual = 0.000368289, Final residual = 3.01008e-05, No Iterations 1
time step continuity errors : sum local = 2.44583e-05, global = 4.39559e-07, cumulative = -0.0182058
smoothSolver:  Solving for omega, Initial residual = 0.000322631, Final residual = 1.62042e-05, No Iterations 2
smoothSolver:  Solving for k, Initial residual = 0.00636128, Final residual = 0.000556539, No Iterations 2
ExecutionTime = 4.03 s  ClockTime = 4 s

Time = 85

smoothSolver:  Solving for Ux, Initial residual = 0.00200401, Final residual = 0.000185034, No Iterations 4
smoothSolver:  Solving for Uy, Initial residual = 0.00469608, Final residual = 0.000464145, No Iterations 4
GAMG:  Solving for p, Initial residual = 0.000364684, Final residual = 2.80594e-05, No Iterations 1
time step continuity errors : sum local = 2.27598e-05, global = 5.4643e-07, cumulative = -0.0182052
smoothSolver:  Solving for omega, Initial residual = 0.000317092, Final residual = 1.56453e-05, No Iterations 2
smoothSolver:  Solving for k, Initial residual = 0.0061621, Final residual = 0.000525674, No Iterations 2
ExecutionTime = 4.07 s  ClockTime = 4 s

Time = 86

smoothSolver:  Solving for Ux, Initial residual = 0.00194062, Final residual = 0.000178827, No Iterations 4
smoothSolver:  Solving for Uy, Initial residual = 0.00458242, Final residual = 0.000453174, No Iterations 4
GAMG:  Solving for p, Initial residual = 0.000351616, Final residual = 2.8299e-05, No Iterations 1
time step continuity errors : sum local = 2.29073e-05, global = 5.50791e-07, cumulative = -0.0182047
smoothSolver:  Solving for omega, Initial residual = 0.000310678, Final residual = 1.54971e-05, No Iterations 2
smoothSolver:  Solving for k, Initial residual = 0.00600987, Final residual = 0.000525351, No Iterations 2
ExecutionTime = 4.12 s  ClockTime = 4 s

Time = 87

smoothSolver:  Solving for Ux, Initial residual = 0.0018802, Final residual = 0.000172903, No Iterations 4
smoothSolver:  Solving for Uy, Initial residual = 0.0044869, Final residual = 0.000444187, No Iterations 4
GAMG:  Solving for p, Initial residual = 0.000351335, Final residual = 2.88762e-05, No Iterations 1
time step continuity errors : sum local = 2.33286e-05, global = 1.62961e-07, cumulative = -0.0182045
smoothSolver:  Solving for omega, Initial residual = 0.000304065, Final residual = 1.47051e-05, No Iterations 2
smoothSolver:  Solving for k, Initial residual = 0.00584143, Final residual = 0.000509348, No Iterations 2
ExecutionTime = 4.16 s  ClockTime = 4 s

Time = 88

smoothSolver:  Solving for Ux, Initial residual = 0.00182076, Final residual = 0.000167, No Iterations 4
smoothSolver:  Solving for Uy, Initial residual = 0.00436881, Final residual = 0.000433571, No Iterations 4
GAMG:  Solving for p, Initial residual = 0.000341288, Final residual = 2.65533e-05, No Iterations 1
time step continuity errors : sum local = 2.14016e-05, global = 8.24836e-07, cumulative = -0.0182037
smoothSolver:  Solving for omega, Initial residual = 0.000299599, Final residual = 1.52004e-05, No Iterations 2
smoothSolver:  Solving for k, Initial residual = 0.00567115, Final residual = 0.000484131, No Iterations 2
ExecutionTime = 4.2 s  ClockTime = 4 s

Time = 89

smoothSolver:  Solving for Ux, Initial residual = 0.00176246, Final residual = 0.000161304, No Iterations 4
smoothSolver:  Solving for Uy, Initial residual = 0.00427152, Final residual = 0.000424602, No Iterations 4
GAMG:  Solving for p, Initial residual = 0.000338967, Final residual = 2.79823e-05, No Iterations 1
time step continuity errors : sum local = 2.25046e-05, global = -2.36717e-07, cumulative = -0.0182039
smoothSolver:  Solving for omega, Initial residual = 0.000292274, Final residual = 1.43963e-05, No Iterations 2
smoothSolver:  Solving for k, Initial residual = 0.0055291, Final residual = 0.000470691, No Iterations 2
ExecutionTime = 4.25 s  ClockTime = 4 s

Time = 90

smoothSolver:  Solving for Ux, Initial residual = 0.00170547, Final residual = 0.000155749, No Iterations 4
smoothSolver:  Solving for Uy, Initial residual = 0.00417195, Final residual = 0.000415878, No Iterations 4
GAMG:  Solving for p, Initial residual = 0.000328622, Final residual = 2.63358e-05, No Iterations 1
time step continuity errors : sum local = 2.11325e-05, global = 1.26085e-06, cumulative = -0.0182027
smoothSolver:  Solving for omega, Initial residual = 0.000286074, Final residual = 1.39786e-05, No Iterations 2
smoothSolver:  Solving for k, Initial residual = 0.00538025, Final residual = 0.000459545, No Iterations 2
ExecutionTime = 4.29 s  ClockTime = 4 s

Time = 91

smoothSolver:  Solving for Ux, Initial residual = 0.00165059, Final residual = 0.000150341, No Iterations 4
smoothSolver:  Solving for Uy, Initial residual = 0.00407197, Final residual = 0.000405728, No Iterations 4
GAMG:  Solving for p, Initial residual = 0.000323347, Final residual = 2.63385e-05, No Iterations 1
time step continuity errors : sum local = 2.10899e-05, global = -5.20901e-07, cumulative = -0.0182032
smoothSolver:  Solving for omega, Initial residual = 0.000281418, Final residual = 1.41074e-05, No Iterations 2
smoothSolver:  Solving for k, Initial residual = 0.00523402, Final residual = 0.000443116, No Iterations 2
ExecutionTime = 4.33 s  ClockTime = 4 s

Time = 92

smoothSolver:  Solving for Ux, Initial residual = 0.00159673, Final residual = 0.000145087, No Iterations 4
smoothSolver:  Solving for Uy, Initial residual = 0.00398948, Final residual = 0.000398194, No Iterations 4
GAMG:  Solving for p, Initial residual = 0.000318571, Final residual = 2.59232e-05, No Iterations 1
time step continuity errors : sum local = 2.07152e-05, global = 1.52482e-06, cumulative = -0.0182017
smoothSolver:  Solving for omega, Initial residual = 0.000274159, Final residual = 1.31658e-05, No Iterations 2
smoothSolver:  Solving for k, Initial residual = 0.00508921, Final residual = 0.000426744, No Iterations 2
ExecutionTime = 4.38 s  ClockTime = 4 s

Time = 93

smoothSolver:  Solving for Ux, Initial residual = 0.0015442, Final residual = 0.000139924, No Iterations 4
smoothSolver:  Solving for Uy, Initial residual = 0.00388649, Final residual = 0.000388606, No Iterations 4
GAMG:  Solving for p, Initial residual = 0.000306541, Final residual = 2.50024e-05, No Iterations 1
time step continuity errors : sum local = 1.99379e-05, global = -8.06186e-07, cumulative = -0.0182025
smoothSolver:  Solving for omega, Initial residual = 0.000271175, Final residual = 1.34888e-05, No Iterations 2
smoothSolver:  Solving for k, Initial residual = 0.00496871, Final residual = 0.000416141, No Iterations 2
ExecutionTime = 4.42 s  ClockTime = 4 s

Time = 94

smoothSolver:  Solving for Ux, Initial residual = 0.00149345, Final residual = 0.00013497, No Iterations 4
smoothSolver:  Solving for Uy, Initial residual = 0.00381349, Final residual = 0.000221477, No Iterations 5
GAMG:  Solving for p, Initial residual = 0.000308169, Final residual = 2.44502e-05, No Iterations 1
time step continuity errors : sum local = 1.94571e-05, global = 1.8801e-06, cumulative = -0.0182006
smoothSolver:  Solving for omega, Initial residual = 0.000264267, Final residual = 1.26869e-05, No Iterations 2
smoothSolver:  Solving for k, Initial residual = 0.00484233, Final residual = 0.000405309, No Iterations 2
ExecutionTime = 4.47 s  ClockTime = 4 s

Time = 95

smoothSolver:  Solving for Ux, Initial residual = 0.00144522, Final residual = 0.0001303, No Iterations 4
smoothSolver:  Solving for Uy, Initial residual = 0.00359804, Final residual = 0.000357419, No Iterations 4
GAMG:  Solving for p, Initial residual = 0.000308645, Final residual = 2.61725e-05, No Iterations 1
time step continuity errors : sum local = 2.08055e-05, global = -9.68975e-07, cumulative = -0.0182016
smoothSolver:  Solving for omega, Initial residual = 0.000259065, Final residual = 1.24364e-05, No Iterations 2
smoothSolver:  Solving for k, Initial residual = 0.00472743, Final residual = 0.000393543, No Iterations 2
ExecutionTime = 4.51 s  ClockTime = 4 s

Time = 96

smoothSolver:  Solving for Ux, Initial residual = 0.00139547, Final residual = 0.000125322, No Iterations 4
smoothSolver:  Solving for Uy, Initial residual = 0.00363914, Final residual = 0.000211092, No Iterations 5
GAMG:  Solving for p, Initial residual = 0.000301947, Final residual = 2.38614e-05, No Iterations 1
time step continuity errors : sum local = 1.89118e-05, global = 1.84307e-06, cumulative = -0.0181997
smoothSolver:  Solving for omega, Initial residual = 0.000254515, Final residual = 1.2332e-05, No Iterations 2
smoothSolver:  Solving for k, Initial residual = 0.00458947, Final residual = 0.000370275, No Iterations 2
ExecutionTime = 4.56 s  ClockTime = 4 s

Time = 97

smoothSolver:  Solving for Ux, Initial residual = 0.00134948, Final residual = 0.000120954, No Iterations 4
smoothSolver:  Solving for Uy, Initial residual = 0.00344212, Final residual = 0.000342525, No Iterations 4
GAMG:  Solving for p, Initial residual = 0.000292069, Final residual = 2.53658e-05, No Iterations 1
time step continuity errors : sum local = 2.00896e-05, global = -1.03808e-06, cumulative = -0.0182007
smoothSolver:  Solving for omega, Initial residual = 0.000249525, Final residual = 1.22644e-05, No Iterations 2
smoothSolver:  Solving for k, Initial residual = 0.00448205, Final residual = 0.000363524, No Iterations 2
ExecutionTime = 4.6 s  ClockTime = 4 s

Time = 98

smoothSolver:  Solving for Ux, Initial residual = 0.00130231, Final residual = 0.00011619, No Iterations 4
smoothSolver:  Solving for Uy, Initial residual = 0.0034778, Final residual = 0.000202017, No Iterations 5
GAMG:  Solving for p, Initial residual = 0.000285519, Final residual = 2.29503e-05, No Iterations 1
time step continuity errors : sum local = 1.81212e-05, global = 1.82434e-06, cumulative = -0.0181989
smoothSolver:  Solving for omega, Initial residual = 0.000243996, Final residual = 1.16955e-05, No Iterations 2
smoothSolver:  Solving for k, Initial residual = 0.00438779, Final residual = 0.000354921, No Iterations 2
ExecutionTime = 4.65 s  ClockTime = 4 s

Time = 99

smoothSolver:  Solving for Ux, Initial residual = 0.00126009, Final residual = 0.000112112, No Iterations 4
smoothSolver:  Solving for Uy, Initial residual = 0.00330659, Final residual = 0.000329058, No Iterations 4
GAMG:  Solving for p, Initial residual = 0.000286426, Final residual = 2.40272e-05, No Iterations 1
time step continuity errors : sum local = 1.89649e-05, global = -9.36056e-07, cumulative = -0.0181999
smoothSolver:  Solving for omega, Initial residual = 0.000239647, Final residual = 1.1517e-05, No Iterations 2
smoothSolver:  Solving for k, Initial residual = 0.00427983, Final residual = 0.000355346, No Iterations 2
ExecutionTime = 4.69 s  ClockTime = 4 s

Time = 100

smoothSolver:  Solving for Ux, Initial residual = 0.00121583, Final residual = 0.000107645, No Iterations 4
smoothSolver:  Solving for Uy, Initial residual = 0.00333802, Final residual = 0.000193212, No Iterations 5
GAMG:  Solving for p, Initial residual = 0.000280865, Final residual = 2.19819e-05, No Iterations 1
time step continuity errors : sum local = 1.73041e-05, global = 1.52463e-06, cumulative = -0.0181983
smoothSolver:  Solving for omega, Initial residual = 0.000235122, Final residual = 1.13006e-05, No Iterations 2
smoothSolver:  Solving for k, Initial residual = 0.00414382, Final residual = 0.000324965, No Iterations 2
ExecutionTime = 4.83 s  ClockTime = 4 s

Time = 101

smoothSolver:  Solving for Ux, Initial residual = 0.00117475, Final residual = 0.000103745, No Iterations 4
smoothSolver:  Solving for Uy, Initial residual = 0.00317606, Final residual = 0.000315909, No Iterations 4
GAMG:  Solving for p, Initial residual = 0.000280391, Final residual = 2.32023e-05, No Iterations 1
time step continuity errors : sum local = 1.82584e-05, global = -7.29019e-07, cumulative = -0.0181991
smoothSolver:  Solving for omega, Initial residual = 0.000231427, Final residual = 1.11847e-05, No Iterations 2
smoothSolver:  Solving for k, Initial residual = 0.00406906, Final residual = 0.000322265, No Iterations 2
ExecutionTime = 4.95 s  ClockTime = 5 s

Time = 102

smoothSolver:  Solving for Ux, Initial residual = 0.00113209, Final residual = 9.94903e-05, No Iterations 4
smoothSolver:  Solving for Uy, Initial residual = 0.00319481, Final residual = 0.000184798, No Iterations 5
GAMG:  Solving for p, Initial residual = 0.0002746, Final residual = 2.2021e-05, No Iterations 1
time step continuity errors : sum local = 1.72855e-05, global = 1.43285e-06, cumulative = -0.0181976
smoothSolver:  Solving for omega, Initial residual = 0.000226468, Final residual = 1.09508e-05, No Iterations 2
smoothSolver:  Solving for k, Initial residual = 0.00396461, Final residual = 0.000316995, No Iterations 2
ExecutionTime = 4.99 s  ClockTime = 5 s

Time = 103

smoothSolver:  Solving for Ux, Initial residual = 0.00109212, Final residual = 9.57542e-05, No Iterations 4
smoothSolver:  Solving for Uy, Initial residual = 0.00303933, Final residual = 0.000302716, No Iterations 4
GAMG:  Solving for p, Initial residual = 0.000267977, Final residual = 2.18939e-05, No Iterations 1
time step continuity errors : sum local = 1.71808e-05, global = -7.46199e-07, cumulative = -0.0181984
smoothSolver:  Solving for omega, Initial residual = 0.000221936, Final residual = 1.0584e-05, No Iterations 2
smoothSolver:  Solving for k, Initial residual = 0.0038586, Final residual = 0.000305676, No Iterations 2
ExecutionTime = 5.04 s  ClockTime = 5 s

Time = 104

smoothSolver:  Solving for Ux, Initial residual = 0.00105121, Final residual = 9.16875e-05, No Iterations 4
smoothSolver:  Solving for Uy, Initial residual = 0.00306319, Final residual = 0.000177142, No Iterations 5
GAMG:  Solving for p, Initial residual = 0.000257189, Final residual = 2.02004e-05, No Iterations 1
time step continuity errors : sum local = 1.5815e-05, global = 1.46037e-06, cumulative = -0.0181969
smoothSolver:  Solving for omega, Initial residual = 0.000218266, Final residual = 1.03938e-05, No Iterations 2
smoothSolver:  Solving for k, Initial residual = 0.00377231, Final residual = 0.000291647, No Iterations 2
ExecutionTime = 5.08 s  ClockTime = 5 s

Time = 105

smoothSolver:  Solving for Ux, Initial residual = 0.00101381, Final residual = 8.81083e-05, No Iterations 4
smoothSolver:  Solving for Uy, Initial residual = 0.00290961, Final residual = 0.000290021, No Iterations 4
GAMG:  Solving for p, Initial residual = 0.000263855, Final residual = 2.16134e-05, No Iterations 1
time step continuity errors : sum local = 1.69149e-05, global = -4.81407e-07, cumulative = -0.0181974
smoothSolver:  Solving for omega, Initial residual = 0.000214099, Final residual = 1.01914e-05, No Iterations 2
smoothSolver:  Solving for k, Initial residual = 0.00367418, Final residual = 0.000284692, No Iterations 2
ExecutionTime = 5.12 s  ClockTime = 5 s

Time = 106

smoothSolver:  Solving for Ux, Initial residual = 0.000974824, Final residual = 8.4311e-05, No Iterations 4
smoothSolver:  Solving for Uy, Initial residual = 0.00293989, Final residual = 0.000169709, No Iterations 5
GAMG:  Solving for p, Initial residual = 0.000257094, Final residual = 2.08273e-05, No Iterations 1
time step continuity errors : sum local = 1.62672e-05, global = 1.47589e-06, cumulative = -0.0181959
smoothSolver:  Solving for omega, Initial residual = 0.000210342, Final residual = 9.96078e-06, No Iterations 2
smoothSolver:  Solving for k, Initial residual = 0.00357909, Final residual = 0.000273227, No Iterations 2
ExecutionTime = 5.17 s  ClockTime = 5 s

Time = 107

smoothSolver:  Solving for Ux, Initial residual = 0.000938567, Final residual = 8.08646e-05, No Iterations 4
smoothSolver:  Solving for Uy, Initial residual = 0.00279198, Final residual = 0.000277818, No Iterations 4
GAMG:  Solving for p, Initial residual = 0.000252301, Final residual = 2.00557e-05, No Iterations 1
time step continuity errors : sum local = 1.5659e-05, global = -4.01064e-07, cumulative = -0.0181963
smoothSolver:  Solving for omega, Initial residual = 0.000205798, Final residual = 9.65148e-06, No Iterations 2
smoothSolver:  Solving for k, Initial residual = 0.00349937, Final residual = 0.000263038, No Iterations 2
ExecutionTime = 5.21 s  ClockTime = 5 s

Time = 108

smoothSolver:  Solving for Ux, Initial residual = 0.000901894, Final residual = 7.72914e-05, No Iterations 4
smoothSolver:  Solving for Uy, Initial residual = 0.00281683, Final residual = 0.000281549, No Iterations 4
GAMG:  Solving for p, Initial residual = 0.000248559, Final residual = 1.94617e-05, No Iterations 1
time step continuity errors : sum local = 1.51683e-05, global = 1.23118e-06, cumulative = -0.0181951
smoothSolver:  Solving for omega, Initial residual = 0.000203266, Final residual = 9.77263e-06, No Iterations 2
smoothSolver:  Solving for k, Initial residual = 0.00342982, Final residual = 0.000261904, No Iterations 2
ExecutionTime = 5.26 s  ClockTime = 5 s

Time = 109

smoothSolver:  Solving for Ux, Initial residual = 0.000867366, Final residual = 7.39536e-05, No Iterations 4
smoothSolver:  Solving for Uy, Initial residual = 0.00276798, Final residual = 0.000276455, No Iterations 4
GAMG:  Solving for p, Initial residual = 0.00024507, Final residual = 1.91649e-05, No Iterations 1
time step continuity errors : sum local = 1.49266e-05, global = -1.96148e-07, cumulative = -0.0181953
smoothSolver:  Solving for omega, Initial residual = 0.000199014, Final residual = 9.44559e-06, No Iterations 2
smoothSolver:  Solving for k, Initial residual = 0.00333247, Final residual = 0.000252107, No Iterations 2
ExecutionTime = 5.3 s  ClockTime = 5 s

Time = 110

smoothSolver:  Solving for Ux, Initial residual = 0.000833187, Final residual = 7.06959e-05, No Iterations 4
smoothSolver:  Solving for Uy, Initial residual = 0.00271835, Final residual = 0.000271188, No Iterations 4
GAMG:  Solving for p, Initial residual = 0.000245412, Final residual = 1.92656e-05, No Iterations 1
time step continuity errors : sum local = 1.49878e-05, global = 1.10633e-06, cumulative = -0.0181942
smoothSolver:  Solving for omega, Initial residual = 0.000194724, Final residual = 9.06875e-06, No Iterations 2
smoothSolver:  Solving for k, Initial residual = 0.00326309, Final residual = 0.000240893, No Iterations 2
ExecutionTime = 5.34 s  ClockTime = 5 s

Time = 111

smoothSolver:  Solving for Ux, Initial residual = 0.000799882, Final residual = 6.75131e-05, No Iterations 4
smoothSolver:  Solving for Uy, Initial residual = 0.00265285, Final residual = 0.000264319, No Iterations 4
GAMG:  Solving for p, Initial residual = 0.000241291, Final residual = 1.89597e-05, No Iterations 1
time step continuity errors : sum local = 1.47378e-05, global = -1.39807e-07, cumulative = -0.0181943
smoothSolver:  Solving for omega, Initial residual = 0.000191318, Final residual = 8.99188e-06, No Iterations 2
smoothSolver:  Solving for k, Initial residual = 0.00318796, Final residual = 0.000236284, No Iterations 2
ExecutionTime = 5.39 s  ClockTime = 5 s

Time = 112

smoothSolver:  Solving for Ux, Initial residual = 0.000767173, Final residual = 6.4418e-05, No Iterations 4
smoothSolver:  Solving for Uy, Initial residual = 0.00259484, Final residual = 0.000258525, No Iterations 4
GAMG:  Solving for p, Initial residual = 0.000234346, Final residual = 1.86298e-05, No Iterations 1
time step continuity errors : sum local = 1.44671e-05, global = 1.1533e-06, cumulative = -0.0181932
smoothSolver:  Solving for omega, Initial residual = 0.000187718, Final residual = 8.8321e-06, No Iterations 2
smoothSolver:  Solving for k, Initial residual = 0.00310448, Final residual = 0.000222506, No Iterations 2
ExecutionTime = 5.44 s  ClockTime = 5 s

Time = 113

smoothSolver:  Solving for Ux, Initial residual = 0.000735501, Final residual = 6.14007e-05, No Iterations 4
smoothSolver:  Solving for Uy, Initial residual = 0.00253278, Final residual = 0.000251661, No Iterations 4
GAMG:  Solving for p, Initial residual = 0.000234644, Final residual = 1.86579e-05, No Iterations 1
time step continuity errors : sum local = 1.44757e-05, global = -7.32551e-08, cumulative = -0.0181932
smoothSolver:  Solving for omega, Initial residual = 0.000183952, Final residual = 8.55147e-06, No Iterations 2
smoothSolver:  Solving for k, Initial residual = 0.00304036, Final residual = 0.000219528, No Iterations 2
ExecutionTime = 5.48 s  ClockTime = 5 s

Time = 114

smoothSolver:  Solving for Ux, Initial residual = 0.000704858, Final residual = 5.85287e-05, No Iterations 4
smoothSolver:  Solving for Uy, Initial residual = 0.00248219, Final residual = 0.000245793, No Iterations 4
GAMG:  Solving for p, Initial residual = 0.000228192, Final residual = 1.81841e-05, No Iterations 1
time step continuity errors : sum local = 1.40951e-05, global = 1.06441e-06, cumulative = -0.0181922
smoothSolver:  Solving for omega, Initial residual = 0.000181058, Final residual = 8.47234e-06, No Iterations 2
smoothSolver:  Solving for k, Initial residual = 0.00297772, Final residual = 0.000218879, No Iterations 2
ExecutionTime = 5.53 s  ClockTime = 5 s

Time = 115

smoothSolver:  Solving for Ux, Initial residual = 0.000674959, Final residual = 5.5653e-05, No Iterations 4
smoothSolver:  Solving for Uy, Initial residual = 0.00242565, Final residual = 0.000238865, No Iterations 4
GAMG:  Solving for p, Initial residual = 0.000224056, Final residual = 1.78009e-05, No Iterations 1
[...]
smoothSolver:  Solving for Uy, Initial residual = 0.000875079, Final residual = 6.72291e-05, No Iterations 4
GAMG:  Solving for p, Initial residual = 0.000173037, Final residual = 1.53731e-06, No Iterations 2
time step continuity errors : sum local = 1.18069e-06, global = -1.66662e-07, cumulative = -0.0181771
smoothSolver:  Solving for omega, Initial residual = 0.000115259, Final residual = 5.24646e-06, No Iterations 2
smoothSolver:  Solving for k, Initial residual = 0.00174359, Final residual = 0.000101645, No Iterations 2
ExecutionTime = 6.67 s  ClockTime = 6 s

Time = 140

smoothSolver:  Solving for Ux, Initial residual = 0.000227775, Final residual = 1.59823e-05, No Iterations 4
smoothSolver:  Solving for Uy, Initial residual = 0.000830232, Final residual = 6.23949e-05, No Iterations 4
GAMG:  Solving for p, Initial residual = 0.000163734, Final residual = 5.00669e-06, No Iterations 2
time step continuity errors : sum local = 3.8438e-06, global = 1.20248e-07, cumulative = -0.018177
smoothSolver:  Solving for omega, Initial residual = 0.000112982, Final residual = 5.05522e-06, No Iterations 2
smoothSolver:  Solving for k, Initial residual = 0.00170651, Final residual = 9.71151e-05, No Iterations 2
ExecutionTime = 6.71 s  ClockTime = 6 s

Time = 141

smoothSolver:  Solving for Ux, Initial residual = 0.000221074, Final residual = 1.55316e-05, No Iterations 4
smoothSolver:  Solving for Uy, Initial residual = 0.000771931, Final residual = 5.73875e-05, No Iterations 4
GAMG:  Solving for p, Initial residual = 0.000160058, Final residual = 1.69377e-06, No Iterations 2
time step continuity errors : sum local = 1.30106e-06, global = 1.218e-08, cumulative = -0.0181769
smoothSolver:  Solving for omega, Initial residual = 0.000111444, Final residual = 5.07667e-06, No Iterations 2
smoothSolver:  Solving for k, Initial residual = 0.00167778, Final residual = 9.95302e-05, No Iterations 2
ExecutionTime = 6.76 s  ClockTime = 6 s

Time = 142

smoothSolver:  Solving for Ux, Initial residual = 0.000214682, Final residual = 1.505e-05, No Iterations 4
smoothSolver:  Solving for Uy, Initial residual = 0.000728276, Final residual = 5.31976e-05, No Iterations 4
GAMG:  Solving for p, Initial residual = 0.000158617, Final residual = 1.57824e-06, No Iterations 2
time step continuity errors : sum local = 1.21262e-06, global = 5.85375e-09, cumulative = -0.0181769
smoothSolver:  Solving for omega, Initial residual = 0.000109503, Final residual = 4.96451e-06, No Iterations 2
smoothSolver:  Solving for k, Initial residual = 0.00163606, Final residual = 9.45325e-05, No Iterations 2
ExecutionTime = 6.81 s  ClockTime = 6 s

Time = 143

smoothSolver:  Solving for Ux, Initial residual = 0.000208265, Final residual = 1.45487e-05, No Iterations 4
smoothSolver:  Solving for Uy, Initial residual = 0.000683872, Final residual = 4.91787e-05, No Iterations 4
GAMG:  Solving for p, Initial residual = 0.000156624, Final residual = 1.77034e-06, No Iterations 2
time step continuity errors : sum local = 1.36055e-06, global = 2.97966e-08, cumulative = -0.0181769
smoothSolver:  Solving for omega, Initial residual = 0.000107659, Final residual = 4.91e-06, No Iterations 2
smoothSolver:  Solving for k, Initial residual = 0.00160668, Final residual = 9.29168e-05, No Iterations 2
ExecutionTime = 6.85 s  ClockTime = 6 s

Time = 144

smoothSolver:  Solving for Ux, Initial residual = 0.000202309, Final residual = 1.41175e-05, No Iterations 4
smoothSolver:  Solving for Uy, Initial residual = 0.000646988, Final residual = 4.55548e-05, No Iterations 4
GAMG:  Solving for p, Initial residual = 0.000159185, Final residual = 1.6138e-06, No Iterations 2
time step continuity errors : sum local = 1.24068e-06, global = -3.24503e-08, cumulative = -0.0181769
smoothSolver:  Solving for omega, Initial residual = 0.000105581, Final residual = 4.84466e-06, No Iterations 2
smoothSolver:  Solving for k, Initial residual = 0.00156317, Final residual = 8.3937e-05, No Iterations 2
ExecutionTime = 6.9 s  ClockTime = 6 s

Time = 145

smoothSolver:  Solving for Ux, Initial residual = 0.00019626, Final residual = 1.36705e-05, No Iterations 4
smoothSolver:  Solving for Uy, Initial residual = 0.000606379, Final residual = 4.2331e-05, No Iterations 4
GAMG:  Solving for p, Initial residual = 0.000151437, Final residual = 1.59453e-06, No Iterations 2
time step continuity errors : sum local = 1.22613e-06, global = 2.40484e-09, cumulative = -0.0181769
smoothSolver:  Solving for omega, Initial residual = 0.000103712, Final residual = 4.66109e-06, No Iterations 2
smoothSolver:  Solving for k, Initial residual = 0.00153909, Final residual = 8.44706e-05, No Iterations 2
ExecutionTime = 6.95 s  ClockTime = 7 s

Time = 146

smoothSolver:  Solving for Ux, Initial residual = 0.000190726, Final residual = 1.32604e-05, No Iterations 4
smoothSolver:  Solving for Uy, Initial residual = 0.000572919, Final residual = 3.94244e-05, No Iterations 4
GAMG:  Solving for p, Initial residual = 0.000151169, Final residual = 1.68281e-06, No Iterations 2
time step continuity errors : sum local = 1.29429e-06, global = 1.76391e-08, cumulative = -0.0181769
smoothSolver:  Solving for omega, Initial residual = 0.00010201, Final residual = 4.62484e-06, No Iterations 2
smoothSolver:  Solving for k, Initial residual = 0.00150989, Final residual = 8.26786e-05, No Iterations 2
ExecutionTime = 6.99 s  ClockTime = 7 s

Time = 147

smoothSolver:  Solving for Ux, Initial residual = 0.00018565, Final residual = 1.28908e-05, No Iterations 4
smoothSolver:  Solving for Uy, Initial residual = 0.00054165, Final residual = 3.67694e-05, No Iterations 4
GAMG:  Solving for p, Initial residual = 0.000149562, Final residual = 1.58381e-06, No Iterations 2
time step continuity errors : sum local = 1.21849e-06, global = 1.37247e-08, cumulative = -0.0181769
smoothSolver:  Solving for omega, Initial residual = 0.000100577, Final residual = 4.50822e-06, No Iterations 2
smoothSolver:  Solving for k, Initial residual = 0.00148046, Final residual = 8.05587e-05, No Iterations 2
ExecutionTime = 7.04 s  ClockTime = 7 s

Time = 148

smoothSolver:  Solving for Ux, Initial residual = 0.000180901, Final residual = 1.25399e-05, No Iterations 4
smoothSolver:  Solving for Uy, Initial residual = 0.000515114, Final residual = 3.4445e-05, No Iterations 4
GAMG:  Solving for p, Initial residual = 0.000147353, Final residual = 1.59654e-06, No Iterations 2
time step continuity errors : sum local = 1.22862e-06, global = 5.19213e-08, cumulative = -0.0181769
smoothSolver:  Solving for omega, Initial residual = 9.86057e-05, Final residual = 4.48437e-06, No Iterations 2
smoothSolver:  Solving for k, Initial residual = 0.00144636, Final residual = 7.77243e-05, No Iterations 2
ExecutionTime = 7.08 s  ClockTime = 7 s

Time = 149

smoothSolver:  Solving for Ux, Initial residual = 0.000176156, Final residual = 1.21954e-05, No Iterations 4
smoothSolver:  Solving for Uy, Initial residual = 0.000490212, Final residual = 3.24708e-05, No Iterations 4
GAMG:  Solving for p, Initial residual = 0.000141207, Final residual = 1.574e-06, No Iterations 2
time step continuity errors : sum local = 1.2116e-06, global = 4.80304e-08, cumulative = -0.0181768
smoothSolver:  Solving for omega, Initial residual = 9.68932e-05, Final residual = 4.33825e-06, No Iterations 2
smoothSolver:  Solving for k, Initial residual = 0.00141848, Final residual = 7.36716e-05, No Iterations 2
ExecutionTime = 7.13 s  ClockTime = 7 s

Time = 150

smoothSolver:  Solving for Ux, Initial residual = 0.000171987, Final residual = 1.18881e-05, No Iterations 4
smoothSolver:  Solving for Uy, Initial residual = 0.000469461, Final residual = 3.07369e-05, No Iterations 4
GAMG:  Solving for p, Initial residual = 0.000140745, Final residual = 1.56538e-06, No Iterations 2
time step continuity errors : sum local = 1.20525e-06, global = 5.39612e-08, cumulative = -0.0181768
smoothSolver:  Solving for omega, Initial residual = 9.49334e-05, Final residual = 4.20893e-06, No Iterations 2
smoothSolver:  Solving for k, Initial residual = 0.00139136, Final residual = 7.24322e-05, No Iterations 2
ExecutionTime = 7.17 s  ClockTime = 7 s

Time = 151

smoothSolver:  Solving for Ux, Initial residual = 0.00016799, Final residual = 1.15802e-05, No Iterations 4
smoothSolver:  Solving for Uy, Initial residual = 0.000450605, Final residual = 2.93021e-05, No Iterations 4
GAMG:  Solving for p, Initial residual = 0.000137446, Final residual = 1.61076e-06, No Iterations 2
time step continuity errors : sum local = 1.24046e-06, global = 5.07587e-08, cumulative = -0.0181767
smoothSolver:  Solving for omega, Initial residual = 9.351e-05, Final residual = 4.29908e-06, No Iterations 2
smoothSolver:  Solving for k, Initial residual = 0.00136233, Final residual = 7.11437e-05, No Iterations 2
ExecutionTime = 7.22 s  ClockTime = 7 s

Time = 152

smoothSolver:  Solving for Ux, Initial residual = 0.000163862, Final residual = 1.12815e-05, No Iterations 4
smoothSolver:  Solving for Uy, Initial residual = 0.000435627, Final residual = 2.80134e-05, No Iterations 4
GAMG:  Solving for p, Initial residual = 0.000134675, Final residual = 1.53036e-06, No Iterations 2
time step continuity errors : sum local = 1.17887e-06, global = 4.0851e-08, cumulative = -0.0181767
smoothSolver:  Solving for omega, Initial residual = 9.18097e-05, Final residual = 4.04674e-06, No Iterations 2
smoothSolver:  Solving for k, Initial residual = 0.00133059, Final residual = 6.54178e-05, No Iterations 2
ExecutionTime = 7.27 s  ClockTime = 7 s

Time = 153

smoothSolver:  Solving for Ux, Initial residual = 0.000159756, Final residual = 1.09835e-05, No Iterations 4
smoothSolver:  Solving for Uy, Initial residual = 0.000418046, Final residual = 2.68431e-05, No Iterations 4
GAMG:  Solving for p, Initial residual = 0.000133188, Final residual = 1.6938e-06, No Iterations 2
time step continuity errors : sum local = 1.30502e-06, global = 7.84697e-08, cumulative = -0.0181766
smoothSolver:  Solving for omega, Initial residual = 9.00715e-05, Final residual = 4.02478e-06, No Iterations 2
smoothSolver:  Solving for k, Initial residual = 0.0013075, Final residual = 6.45697e-05, No Iterations 2
ExecutionTime = 7.32 s  ClockTime = 7 s

Time = 154

smoothSolver:  Solving for Ux, Initial residual = 0.000155515, Final residual = 1.06882e-05, No Iterations 4
smoothSolver:  Solving for Uy, Initial residual = 0.000401943, Final residual = 2.58201e-05, No Iterations 4
GAMG:  Solving for p, Initial residual = 0.000129307, Final residual = 1.75721e-06, No Iterations 2
time step continuity errors : sum local = 1.35422e-06, global = 6.74897e-08, cumulative = -0.0181765
smoothSolver:  Solving for omega, Initial residual = 8.85777e-05, Final residual = 3.96295e-06, No Iterations 2
smoothSolver:  Solving for k, Initial residual = 0.00128081, Final residual = 6.24889e-05, No Iterations 2
ExecutionTime = 7.36 s  ClockTime = 7 s

Time = 155

smoothSolver:  Solving for Ux, Initial residual = 0.000151943, Final residual = 1.04203e-05, No Iterations 4
smoothSolver:  Solving for Uy, Initial residual = 0.00039182, Final residual = 2.49761e-05, No Iterations 4
GAMG:  Solving for p, Initial residual = 0.000126911, Final residual = 1.59135e-06, No Iterations 2
time step continuity errors : sum local = 1.22667e-06, global = 6.49748e-08, cumulative = -0.0181765
smoothSolver:  Solving for omega, Initial residual = 8.67508e-05, Final residual = 3.86742e-06, No Iterations 2
smoothSolver:  Solving for k, Initial residual = 0.00125966, Final residual = 6.46246e-05, No Iterations 2
ExecutionTime = 7.41 s  ClockTime = 7 s

Time = 156

smoothSolver:  Solving for Ux, Initial residual = 0.000148344, Final residual = 1.01499e-05, No Iterations 4
smoothSolver:  Solving for Uy, Initial residual = 0.000378822, Final residual = 2.42082e-05, No Iterations 4
GAMG:  Solving for p, Initial residual = 0.000125529, Final residual = 1.57606e-06, No Iterations 2
time step continuity errors : sum local = 1.21525e-06, global = 7.92611e-08, cumulative = -0.0181764
smoothSolver:  Solving for omega, Initial residual = 8.53978e-05, Final residual = 3.79992e-06, No Iterations 2
smoothSolver:  Solving for k, Initial residual = 0.00122845, Final residual = 5.78648e-05, No Iterations 2
ExecutionTime = 7.45 s  ClockTime = 7 s

Time = 157

smoothSolver:  Solving for Ux, Initial residual = 0.000144804, Final residual = 9.87707e-06, No Iterations 4
smoothSolver:  Solving for Uy, Initial residual = 0.000371917, Final residual = 2.35658e-05, No Iterations 4
GAMG:  Solving for p, Initial residual = 0.000121904, Final residual = 1.61788e-06, No Iterations 2
time step continuity errors : sum local = 1.24779e-06, global = 8.22833e-08, cumulative = -0.0181763
smoothSolver:  Solving for omega, Initial residual = 8.39997e-05, Final residual = 3.79008e-06, No Iterations 2
smoothSolver:  Solving for k, Initial residual = 0.00120633, Final residual = 5.67411e-05, No Iterations 2
ExecutionTime = 7.5 s  ClockTime = 7 s

Time = 158

smoothSolver:  Solving for Ux, Initial residual = 0.000141255, Final residual = 9.61926e-06, No Iterations 4
smoothSolver:  Solving for Uy, Initial residual = 0.000362359, Final residual = 2.30022e-05, No Iterations 4
GAMG:  Solving for p, Initial residual = 0.000120235, Final residual = 1.60156e-06, No Iterations 2
time step continuity errors : sum local = 1.23548e-06, global = 7.9055e-08, cumulative = -0.0181762
smoothSolver:  Solving for omega, Initial residual = 8.23866e-05, Final residual = 3.61017e-06, No Iterations 2
smoothSolver:  Solving for k, Initial residual = 0.00118509, Final residual = 5.52199e-05, No Iterations 2
ExecutionTime = 7.55 s  ClockTime = 7 s

Time = 159

smoothSolver:  Solving for Ux, Initial residual = 0.000137839, Final residual = 9.36037e-06, No Iterations 4
smoothSolver:  Solving for Uy, Initial residual = 0.000351155, Final residual = 2.25217e-05, No Iterations 4
GAMG:  Solving for p, Initial residual = 0.000120823, Final residual = 1.70927e-06, No Iterations 2
time step continuity errors : sum local = 1.31899e-06, global = 9.58032e-08, cumulative = -0.0181761
smoothSolver:  Solving for omega, Initial residual = 8.11013e-05, Final residual = 3.68408e-06, No Iterations 2
smoothSolver:  Solving for k, Initial residual = 0.00116141, Final residual = 5.3049e-05, No Iterations 2
ExecutionTime = 7.59 s  ClockTime = 7 s

Time = 160

smoothSolver:  Solving for Ux, Initial residual = 0.000134691, Final residual = 9.12273e-06, No Iterations 4
smoothSolver:  Solving for Uy, Initial residual = 0.000343308, Final residual = 2.20097e-05, No Iterations 4
GAMG:  Solving for p, Initial residual = 0.000117021, Final residual = 1.62802e-06, No Iterations 2
time step continuity errors : sum local = 1.25669e-06, global = 8.43026e-08, cumulative = -0.018176
smoothSolver:  Solving for omega, Initial residual = 7.9593e-05, Final residual = 3.4856e-06, No Iterations 2
smoothSolver:  Solving for k, Initial residual = 0.00114273, Final residual = 5.46991e-05, No Iterations 2
ExecutionTime = 7.64 s  ClockTime = 7 s

Time = 161

smoothSolver:  Solving for Ux, Initial residual = 0.00013157, Final residual = 8.88968e-06, No Iterations 4
smoothSolver:  Solving for Uy, Initial residual = 0.000337676, Final residual = 2.15815e-05, No Iterations 4
GAMG:  Solving for p, Initial residual = 0.000114797, Final residual = 1.91029e-06, No Iterations 2
time step continuity errors : sum local = 1.47509e-06, global = 1.09679e-07, cumulative = -0.0181759
smoothSolver:  Solving for omega, Initial residual = 7.82927e-05, Final residual = 3.44825e-06, No Iterations 2
smoothSolver:  Solving for k, Initial residual = 0.00111763, Final residual = 5.01184e-05, No Iterations 2
ExecutionTime = 7.68 s  ClockTime = 7 s

Time = 162

smoothSolver:  Solving for Ux, Initial residual = 0.000128386, Final residual = 8.66627e-06, No Iterations 4
smoothSolver:  Solving for Uy, Initial residual = 0.000330499, Final residual = 2.12197e-05, No Iterations 4
GAMG:  Solving for p, Initial residual = 0.000111564, Final residual = 1.49037e-06, No Iterations 2
time step continuity errors : sum local = 1.15132e-06, global = 7.28468e-08, cumulative = -0.0181759
smoothSolver:  Solving for omega, Initial residual = 7.68171e-05, Final residual = 3.47439e-06, No Iterations 2
smoothSolver:  Solving for k, Initial residual = 0.0010951, Final residual = 4.74138e-05, No Iterations 2
ExecutionTime = 7.73 s  ClockTime = 7 s

Time = 163

smoothSolver:  Solving for Ux, Initial residual = 0.000125515, Final residual = 8.44423e-06, No Iterations 4
smoothSolver:  Solving for Uy, Initial residual = 0.000326257, Final residual = 2.08964e-05, No Iterations 4
GAMG:  Solving for p, Initial residual = 0.00011094, Final residual = 1.47558e-06, No Iterations 2
time step continuity errors : sum local = 1.14027e-06, global = 7.34333e-08, cumulative = -0.0181758
smoothSolver:  Solving for omega, Initial residual = 7.53309e-05, Final residual = 3.28586e-06, No Iterations 2
smoothSolver:  Solving for k, Initial residual = 0.00107368, Final residual = 4.6777e-05, No Iterations 2
ExecutionTime = 7.77 s  ClockTime = 7 s

Time = 164

smoothSolver:  Solving for Ux, Initial residual = 0.00012244, Final residual = 8.22193e-06, No Iterations 4
smoothSolver:  Solving for Uy, Initial residual = 0.000320291, Final residual = 2.05672e-05, No Iterations 4
GAMG:  Solving for p, Initial residual = 0.000107843, Final residual = 1.93701e-06, No Iterations 2
time step continuity errors : sum local = 1.49725e-06, global = 1.00793e-07, cumulative = -0.0181757
smoothSolver:  Solving for omega, Initial residual = 7.40392e-05, Final residual = 3.30209e-06, No Iterations 2
smoothSolver:  Solving for k, Initial residual = 0.00105079, Final residual = 4.38283e-05, No Iterations 2
ExecutionTime = 7.82 s  ClockTime = 7 s

Time = 165

smoothSolver:  Solving for Ux, Initial residual = 0.00011959, Final residual = 8.0202e-06, No Iterations 4
smoothSolver:  Solving for Uy, Initial residual = 0.000314184, Final residual = 2.01137e-05, No Iterations 4
GAMG:  Solving for p, Initial residual = 0.000106697, Final residual = 1.47251e-06, No Iterations 2
time step continuity errors : sum local = 1.13854e-06, global = 8.85851e-08, cumulative = -0.0181756
smoothSolver:  Solving for omega, Initial residual = 7.28342e-05, Final residual = 3.18934e-06, No Iterations 2
smoothSolver:  Solving for k, Initial residual = 0.00103051, Final residual = 4.35001e-05, No Iterations 2
ExecutionTime = 7.87 s  ClockTime = 7 s

Time = 166

smoothSolver:  Solving for Ux, Initial residual = 0.000116689, Final residual = 7.8103e-06, No Iterations 4
smoothSolver:  Solving for Uy, Initial residual = 0.000305976, Final residual = 1.98518e-05, No Iterations 4
GAMG:  Solving for p, Initial residual = 0.000104631, Final residual = 1.60899e-06, No Iterations 2
time step continuity errors : sum local = 1.24446e-06, global = 8.99827e-08, cumulative = -0.0181755
smoothSolver:  Solving for omega, Initial residual = 7.1607e-05, Final residual = 3.23762e-06, No Iterations 2
smoothSolver:  Solving for k, Initial residual = 0.00101283, Final residual = 4.21542e-05, No Iterations 2
ExecutionTime = 7.91 s  ClockTime = 8 s

Time = 167

smoothSolver:  Solving for Ux, Initial residual = 0.000114061, Final residual = 7.61508e-06, No Iterations 4
smoothSolver:  Solving for Uy, Initial residual = 0.00030207, Final residual = 1.94295e-05, No Iterations 4
GAMG:  Solving for p, Initial residual = 0.000104854, Final residual = 1.76105e-06, No Iterations 2
time step continuity errors : sum local = 1.36258e-06, global = 1.06727e-07, cumulative = -0.0181754
smoothSolver:  Solving for omega, Initial residual = 7.02773e-05, Final residual = 3.10279e-06, No Iterations 2
smoothSolver:  Solving for k, Initial residual = 0.000991796, Final residual = 4.0937e-05, No Iterations 2
ExecutionTime = 7.96 s  ClockTime = 8 s


SIMPLE solution converged in 167 iterations

End

