/*---------------------------------------------------------------------------*\
  =========                 |
  \\      /  F ield         | OpenFOAM: The Open Source CFD Toolbox
   \\    /   O peration     | Website:  https://openfoam.org
    \\  /    A nd           | Version:  7
     \\/     M anipulation  |
\*---------------------------------------------------------------------------*/
Build  : 7-3bcbaf946ae9
Exec   : simpleFoam
Date   : May 14 2022
Time   : 04:50:11
Host   : "Lubuntu"
PID    : 45351
I/O    : uncollated
Case   : /home/ensm_student/Documents/CFD/Rechnerubung/Week2/Aufgabe1/RANS
nProcs : 1
sigFpe : Enabling floating point exception trapping (FOAM_SIGFPE).
fileModificationChecking : Monitoring run-time modified files using timeStampMaster (fileModificationSkew 10)
allowSystemOperations : Allowing user-supplied system call operations

// * * * * * * * * * * * * * * * * * * * * * * * * * * * * * * * * * * * * * //
Create time

Using #calcEntry at line 9 in file "/home/ensm_student/Documents/CFD/Rechnerubung/Week2/Aufgabe1/RANS/system/controlDict.functions.sample"
Using #codeStream with "/home/ensm_student/Documents/CFD/Rechnerubung/Week2/Aufgabe1/RANS/dynamicCode/platforms/linux64GccDPInt32Opt/lib/libcodeStream_626bfd031085b981600136c6367347a2038ba6e2.so"
Using #calcEntry at line 25 in file "/home/ensm_student/Documents/CFD/Rechnerubung/Week2/Aufgabe1/RANS/system/controlDict.functions.sample"
Using #codeStream with "/home/ensm_student/Documents/CFD/Rechnerubung/Week2/Aufgabe1/RANS/dynamicCode/platforms/linux64GccDPInt32Opt/lib/libcodeStream_b5db852909c685ace2d79877c5864fe2f6c0f94d.so"
Create mesh for time = 0


SIMPLE: Convergence criteria found
        p: tolerance 0.01
        U: tolerance 0.01
        "(k|epsilon)": tolerance 0.001

Reading field p

--> FOAM Warning : 
    From function const Foam::HashTable<Foam::List<int>, Foam::word>& Foam::polyBoundaryMesh::groupPatchIDs() const
    in file meshes/polyMesh/polyBoundaryMesh/polyBoundaryMesh.C at line 473
    Removing patchGroup 'wall' which clashes with patch 2 of the same name.
Reading field U

Reading/calculating face flux field phi

Selecting incompressible transport model Newtonian
Selecting turbulence model type RAS
Selecting RAS turbulence model kOmegaSST
Selecting patchDistMethod meshWave
RAS
{
    RASModel        kOmegaSST;
    turbulence      on;
    printCoeffs     on;
    alphaK1         0.85;
    alphaK2         1;
    alphaOmega1     0.5;
    alphaOmega2     0.856;
    gamma1          0.555556;
    gamma2          0.44;
    beta1           0.075;
    beta2           0.0828;
    betaStar        0.09;
    a1              0.31;
    b1              1;
    c1              10;
    F3              false;
}

No MRF models present

Creating finite volume options from "constant/fvOptions"

Using #calcEntry at line 18 in file "/home/ensm_student/Documents/CFD/Rechnerubung/Week2/Aufgabe1/RANS/constant/fvOptions"
Using #codeStream with "/home/ensm_student/Documents/CFD/Rechnerubung/Week2/Aufgabe1/RANS/dynamicCode/platforms/linux64GccDPInt32Opt/lib/libcodeStream_cb6479858865097042bed68efe7da6d6f1371069.so"
Creating new library in "dynamicCode/_cb6479858865097042bed68efe7da6d6f1371069/platforms/linux64GccDPInt32Opt/lib/libcodeStream_cb6479858865097042bed68efe7da6d6f1371069.so"
Invoking "wmake -s libso /home/ensm_student/Documents/CFD/Rechnerubung/Week2/Aufgabe1/RANS/dynamicCode/_cb6479858865097042bed68efe7da6d6f1371069"
wmake libso /home/ensm_student/Documents/CFD/Rechnerubung/Week2/Aufgabe1/RANS/dynamicCode/_cb6479858865097042bed68efe7da6d6f1371069
    ln: ./lnInclude
    wmkdep: codeStreamTemplate.C
    Ctoo: codeStreamTemplate.C
    ld: /home/ensm_student/Documents/CFD/Rechnerubung/Week2/Aufgabe1/RANS/dynamicCode/_cb6479858865097042bed68efe7da6d6f1371069/../platforms/linux64GccDPInt32Opt/lib/libcodeStream_cb6479858865097042bed68efe7da6d6f1371069.so
Selecting finite volume options model type vectorSemiImplicitSource
    Source: momentumSource
    - selecting all cells
    - selected 150 cell(s) with volume 138384

Starting time loop

Reading set description:
    wallNormal

Using dynamicCode for functionObject calcGradU at line 54 in "/home/ensm_student/Documents/CFD/Rechnerubung/Week2/Aufgabe1/RANS/system/controlDict.functions.calcGradU"
Creating new library in "dynamicCode/calcGradU/platforms/linux64GccDPInt32Opt/lib/libcalcGradU_f0d97ebb7ad3dce54b3e67499a59844095d42ae8.so"
Invoking "wmake -s libso /home/ensm_student/Documents/CFD/Rechnerubung/Week2/Aufgabe1/RANS/dynamicCode/calcGradU"
wmake libso /home/ensm_student/Documents/CFD/Rechnerubung/Week2/Aufgabe1/RANS/dynamicCode/calcGradU
    ln: ./lnInclude
    wmkdep: functionObjectTemplate.C
    Ctoo: functionObjectTemplate.C
    ld: /home/ensm_student/Documents/CFD/Rechnerubung/Week2/Aufgabe1/RANS/dynamicCode/calcGradU/../platforms/linux64GccDPInt32Opt/lib/libcalcGradU_f0d97ebb7ad3dce54b3e67499a59844095d42ae8.so
Time = 1

smoothSolver:  Solving for Ux, Initial residual = 1, Final residual = 0.0890387, No Iterations 6
smoothSolver:  Solving for Uy, Initial residual = 0, Final residual = 0, No Iterations 0
GAMG:  Solving for p, Initial residual = 1, Final residual = 0.0201539, No Iterations 2
time step continuity errors : sum local = 1.46905e-06, global = -5.80504e-19, cumulative = -5.80504e-19
smoothSolver:  Solving for omega, Initial residual = 0.651001, Final residual = 0.00493797, No Iterations 1
smoothSolver:  Solving for k, Initial residual = 1, Final residual = 0.057911, No Iterations 1
bounding k, min: -0.000586027 max: 0.0010425 average: 0.000562396
ExecutionTime = 0.01 s  ClockTime = 5 s

Calculating grad(U).
Time = 2

smoothSolver:  Solving for Ux, Initial residual = 0.0829592, Final residual = 0.00596786, No Iterations 8
smoothSolver:  Solving for Uy, Initial residual = 0.704328, Final residual = 0.0645639, No Iterations 1
GAMG:  Solving for p, Initial residual = 0.83307, Final residual = 0.0534403, No Iterations 2
time step continuity errors : sum local = 2.04354e-06, global = -5.9205e-19, cumulative = -1.17255e-18
smoothSolver:  Solving for omega, Initial residual = 0.0312336, Final residual = 0.00243301, No Iterations 1
smoothSolver:  Solving for k, Initial residual = 0.601563, Final residual = 0.0363477, No Iterations 1
ExecutionTime = 0.01 s  ClockTime = 5 s

Calculating grad(U).
Time = 3

smoothSolver:  Solving for Ux, Initial residual = 0.0681142, Final residual = 0.00503728, No Iterations 8
smoothSolver:  Solving for Uy, Initial residual = 0.642493, Final residual = 0.0526827, No Iterations 1
GAMG:  Solving for p, Initial residual = 0.565547, Final residual = 0.0278154, No Iterations 2
time step continuity errors : sum local = 1.96715e-06, global = -7.70928e-19, cumulative = -1.94348e-18
smoothSolver:  Solving for omega, Initial residual = 0.00583033, Final residual = 0.000282663, No Iterations 1
smoothSolver:  Solving for k, Initial residual = 0.221137, Final residual = 0.00945775, No Iterations 2
ExecutionTime = 0.01 s  ClockTime = 5 s

Calculating grad(U).
Time = 4

smoothSolver:  Solving for Ux, Initial residual = 0.0582635, Final residual = 0.00441454, No Iterations 8
smoothSolver:  Solving for Uy, Initial residual = 0.611023, Final residual = 0.03073, No Iterations 2
GAMG:  Solving for p, Initial residual = 0.258669, Final residual = 0.0204399, No Iterations 2
time step continuity errors : sum local = 2.04527e-06, global = 2.02043e-19, cumulative = -1.74144e-18
smoothSolver:  Solving for omega, Initial residual = 0.00223471, Final residual = 0.000164538, No Iterations 1
smoothSolver:  Solving for k, Initial residual = 0.0940742, Final residual = 0.00282151, No Iterations 3
ExecutionTime = 0.02 s  ClockTime = 5 s

Calculating grad(U).
Time = 5

smoothSolver:  Solving for Ux, Initial residual = 0.0511218, Final residual = 0.00395024, No Iterations 8
smoothSolver:  Solving for Uy, Initial residual = 0.653378, Final residual = 0.0403093, No Iterations 2
GAMG:  Solving for p, Initial residual = 0.153316, Final residual = 0.0123017, No Iterations 2
time step continuity errors : sum local = 1.54404e-06, global = -6.59159e-19, cumulative = -2.4006e-18
smoothSolver:  Solving for omega, Initial residual = 0.0013049, Final residual = 8.28737e-05, No Iterations 1
smoothSolver:  Solving for k, Initial residual = 0.0433011, Final residual = 0.00190754, No Iterations 3
ExecutionTime = 0.02 s  ClockTime = 5 s

Calculating grad(U).
Time = 6

smoothSolver:  Solving for Ux, Initial residual = 0.0456449, Final residual = 0.00357707, No Iterations 8
smoothSolver:  Solving for Uy, Initial residual = 0.555079, Final residual = 0.0468962, No Iterations 2
GAMG:  Solving for p, Initial residual = 0.115092, Final residual = 0.00696789, No Iterations 2
time step continuity errors : sum local = 1.06406e-06, global = -1.36219e-19, cumulative = -2.53682e-18
smoothSolver:  Solving for omega, Initial residual = 0.00066663, Final residual = 4.94301e-05, No Iterations 1
smoothSolver:  Solving for k, Initial residual = 0.0242788, Final residual = 0.000877925, No Iterations 3
ExecutionTime = 0.02 s  ClockTime = 5 s

Calculating grad(U).
Time = 7

smoothSolver:  Solving for Ux, Initial residual = 0.0413057, Final residual = 0.00327347, No Iterations 8
smoothSolver:  Solving for Uy, Initial residual = 0.463089, Final residual = 0.0367192, No Iterations 3
GAMG:  Solving for p, Initial residual = 0.0902048, Final residual = 0.0060567, No Iterations 2
time step continuity errors : sum local = 1.06011e-06, global = 1.01158e-18, cumulative = -1.52524e-18
smoothSolver:  Solving for omega, Initial residual = 0.000402689, Final residual = 3.10022e-05, No Iterations 1
smoothSolver:  Solving for k, Initial residual = 0.0205636, Final residual = 0.00125554, No Iterations 3
ExecutionTime = 0.02 s  ClockTime = 5 s

Calculating grad(U).
Time = 8

smoothSolver:  Solving for Ux, Initial residual = 0.0377649, Final residual = 0.0030222, No Iterations 8
smoothSolver:  Solving for Uy, Initial residual = 0.42779, Final residual = 0.0400869, No Iterations 2
GAMG:  Solving for p, Initial residual = 0.0720647, Final residual = 0.00476657, No Iterations 2
time step continuity errors : sum local = 9.1632e-07, global = -7.64759e-19, cumulative = -2.29e-18
smoothSolver:  Solving for omega, Initial residual = 0.00023695, Final residual = 4.18337e-06, No Iterations 2
smoothSolver:  Solving for k, Initial residual = 0.0166942, Final residual = 0.000891479, No Iterations 3
ExecutionTime = 0.02 s  ClockTime = 5 s

Calculating grad(U).
Time = 9

smoothSolver:  Solving for Ux, Initial residual = 0.0347962, Final residual = 0.00280837, No Iterations 8
smoothSolver:  Solving for Uy, Initial residual = 0.400641, Final residual = 0.0352284, No Iterations 2
GAMG:  Solving for p, Initial residual = 0.0591937, Final residual = 0.00372726, No Iterations 2
time step continuity errors : sum local = 7.71602e-07, global = -2.03399e-18, cumulative = -4.32399e-18
smoothSolver:  Solving for omega, Initial residual = 0.000141712, Final residual = 4.21681e-06, No Iterations 2
smoothSolver:  Solving for k, Initial residual = 0.015005, Final residual = 0.00103816, No Iterations 3
ExecutionTime = 0.02 s  ClockTime = 5 s

Calculating grad(U).
Time = 10

smoothSolver:  Solving for Ux, Initial residual = 0.0322732, Final residual = 0.00262393, No Iterations 8
smoothSolver:  Solving for Uy, Initial residual = 0.364474, Final residual = 0.0328223, No Iterations 2
GAMG:  Solving for p, Initial residual = 0.0498183, Final residual = 0.00314047, No Iterations 2
time step continuity errors : sum local = 6.82868e-07, global = -2.05364e-18, cumulative = -6.37763e-18
smoothSolver:  Solving for omega, Initial residual = 9.28372e-05, Final residual = 4.98259e-06, No Iterations 2
smoothSolver:  Solving for k, Initial residual = 0.0156837, Final residual = 0.00108874, No Iterations 3
ExecutionTime = 0.02 s  ClockTime = 5 s

Calculating grad(U).
Time = 11

smoothSolver:  Solving for Ux, Initial residual = 0.0301061, Final residual = 0.00246346, No Iterations 8
smoothSolver:  Solving for Uy, Initial residual = 0.32984, Final residual = 0.0310957, No Iterations 2
GAMG:  Solving for p, Initial residual = 0.0426489, Final residual = 0.00269288, No Iterations 2
time step continuity errors : sum local = 6.08727e-07, global = -8.39776e-19, cumulative = -7.21741e-18
smoothSolver:  Solving for omega, Initial residual = 5.64878e-05, Final residual = 4.86031e-06, No Iterations 2
smoothSolver:  Solving for k, Initial residual = 0.0169755, Final residual = 0.00111153, No Iterations 3
ExecutionTime = 0.02 s  ClockTime = 5 s

Calculating grad(U).
Time = 12

smoothSolver:  Solving for Ux, Initial residual = 0.0282215, Final residual = 0.0023223, No Iterations 8
smoothSolver:  Solving for Uy, Initial residual = 0.299517, Final residual = 0.0294073, No Iterations 2
GAMG:  Solving for p, Initial residual = 0.0369375, Final residual = 0.00234266, No Iterations 2
time step continuity errors : sum local = 5.46324e-07, global = -1.32794e-18, cumulative = -8.54535e-18
smoothSolver:  Solving for omega, Initial residual = 4.60223e-05, Final residual = 3.14602e-06, No Iterations 2
smoothSolver:  Solving for k, Initial residual = 0.0178698, Final residual = 0.000810144, No Iterations 4
ExecutionTime = 0.03 s  ClockTime = 5 s

Calculating grad(U).
Time = 13

smoothSolver:  Solving for Ux, Initial residual = 0.026566, Final residual = 0.00219701, No Iterations 8
smoothSolver:  Solving for Uy, Initial residual = 0.273708, Final residual = 0.0202266, No Iterations 3
GAMG:  Solving for p, Initial residual = 0.0322845, Final residual = 0.00219577, No Iterations 2
time step continuity errors : sum local = 5.2826e-07, global = 2.03672e-19, cumulative = -8.34168e-18
smoothSolver:  Solving for omega, Initial residual = 3.02938e-05, Final residual = 8.69131e-06, No Iterations 1
smoothSolver:  Solving for k, Initial residual = 0.0186984, Final residual = 0.00116789, No Iterations 3
ExecutionTime = 0.03 s  ClockTime = 5 s

Calculating grad(U).
Time = 14

smoothSolver:  Solving for Ux, Initial residual = 0.0251022, Final residual = 0.00208517, No Iterations 8
smoothSolver:  Solving for Uy, Initial residual = 0.252335, Final residual = 0.0233793, No Iterations 2
GAMG:  Solving for p, Initial residual = 0.0283594, Final residual = 0.00184096, No Iterations 2
time step continuity errors : sum local = 4.54189e-07, global = -1.43895e-18, cumulative = -9.78062e-18
smoothSolver:  Solving for omega, Initial residual = 2.81131e-05, Final residual = 9.99045e-06, No Iterations 1
smoothSolver:  Solving for k, Initial residual = 0.0205038, Final residual = 0.00150746, No Iterations 3
ExecutionTime = 0.03 s  ClockTime = 5 s

Calculating grad(U).
Time = 15

smoothSolver:  Solving for Ux, Initial residual = 0.0237925, Final residual = 0.00198421, No Iterations 8
smoothSolver:  Solving for Uy, Initial residual = 0.230816, Final residual = 0.0216586, No Iterations 2
GAMG:  Solving for p, Initial residual = 0.0252072, Final residual = 0.00165011, No Iterations 2
time step continuity errors : sum local = 4.10169e-07, global = -2.18014e-18, cumulative = -1.19608e-17
smoothSolver:  Solving for omega, Initial residual = 2.67968e-05, Final residual = 9.95007e-06, No Iterations 1
smoothSolver:  Solving for k, Initial residual = 0.0219217, Final residual = 0.00196733, No Iterations 3
ExecutionTime = 0.03 s  ClockTime = 5 s

Calculating grad(U).
Time = 16

smoothSolver:  Solving for Ux, Initial residual = 0.022617, Final residual = 0.0018929, No Iterations 8
smoothSolver:  Solving for Uy, Initial residual = 0.211871, Final residual = 0.020762, No Iterations 2
GAMG:  Solving for p, Initial residual = 0.0224683, Final residual = 0.00148327, No Iterations 2
time step continuity errors : sum local = 3.69319e-07, global = -2.09567e-18, cumulative = -1.40564e-17
smoothSolver:  Solving for omega, Initial residual = 2.87703e-05, Final residual = 9.6118e-06, No Iterations 1
smoothSolver:  Solving for k, Initial residual = 0.0224085, Final residual = 0.00163477, No Iterations 3
ExecutionTime = 0.03 s  ClockTime = 5 s

Calculating grad(U).
Time = 17

smoothSolver:  Solving for Ux, Initial residual = 0.0215556, Final residual = 0.00180985, No Iterations 8
smoothSolver:  Solving for Uy, Initial residual = 0.19502, Final residual = 0.0145854, No Iterations 3
GAMG:  Solving for p, Initial residual = 0.0200717, Final residual = 0.00139385, No Iterations 2
time step continuity errors : sum local = 3.50549e-07, global = -1.24582e-18, cumulative = -1.53022e-17
smoothSolver:  Solving for omega, Initial residual = 2.42477e-05, Final residual = 9.69622e-06, No Iterations 1
smoothSolver:  Solving for k, Initial residual = 0.0233556, Final residual = 0.00151812, No Iterations 3
ExecutionTime = 0.03 s  ClockTime = 5 s

Calculating grad(U).
Time = 18

smoothSolver:  Solving for Ux, Initial residual = 0.0205932, Final residual = 0.00173404, No Iterations 8
smoothSolver:  Solving for Uy, Initial residual = 0.18048, Final residual = 0.017223, No Iterations 2
GAMG:  Solving for p, Initial residual = 0.0179562, Final residual = 0.00121128, No Iterations 2
time step continuity errors : sum local = 3.05241e-07, global = -1.55206e-18, cumulative = -1.68543e-17
smoothSolver:  Solving for omega, Initial residual = 2.59857e-05, Final residual = 9.26067e-06, No Iterations 1
smoothSolver:  Solving for k, Initial residual = 0.0247745, Final residual = 0.0016851, No Iterations 3
ExecutionTime = 0.03 s  ClockTime = 5 s

Calculating grad(U).
Time = 19

smoothSolver:  Solving for Ux, Initial residual = 0.0197127, Final residual = 0.00166426, No Iterations 8
smoothSolver:  Solving for Uy, Initial residual = 0.166123, Final residual = 0.0161827, No Iterations 2
GAMG:  Solving for p, Initial residual = 0.0161914, Final residual = 0.00111269, No Iterations 2
time step continuity errors : sum local = 2.77296e-07, global = -1.08331e-18, cumulative = -1.79376e-17
smoothSolver:  Solving for omega, Initial residual = 2.36659e-05, Final residual = 9.16637e-06, No Iterations 1
smoothSolver:  Solving for k, Initial residual = 0.0259102, Final residual = 0.00239924, No Iterations 3
ExecutionTime = 0.03 s  ClockTime = 5 s

Calculating grad(U).
Time = 20

smoothSolver:  Solving for Ux, Initial residual = 0.0189062, Final residual = 0.00159999, No Iterations 8
smoothSolver:  Solving for Uy, Initial residual = 0.153896, Final residual = 0.0114232, No Iterations 3
GAMG:  Solving for p, Initial residual = 0.0146109, Final residual = 0.0010422, No Iterations 2
time step continuity errors : sum local = 2.59052e-07, global = -1.19072e-18, cumulative = -1.91283e-17
smoothSolver:  Solving for omega, Initial residual = 2.39867e-05, Final residual = 8.86062e-06, No Iterations 1
smoothSolver:  Solving for k, Initial residual = 0.026767, Final residual = 0.00237425, No Iterations 3
ExecutionTime = 0.03 s  ClockTime = 5 s

Calculating grad(U).
Time = 21

smoothSolver:  Solving for Ux, Initial residual = 0.0181656, Final residual = 0.00154066, No Iterations 8
smoothSolver:  Solving for Uy, Initial residual = 0.143091, Final residual = 0.0136797, No Iterations 2
GAMG:  Solving for p, Initial residual = 0.0132054, Final residual = 0.000921669, No Iterations 2
time step continuity errors : sum local = 2.32077e-07, global = -1.07497e-18, cumulative = -2.02033e-17
smoothSolver:  Solving for omega, Initial residual = 2.23992e-05, Final residual = 8.76636e-06, No Iterations 1
smoothSolver:  Solving for k, Initial residual = 0.027436, Final residual = 0.00198382, No Iterations 3
ExecutionTime = 0.04 s  ClockTime = 5 s

Calculating grad(U).
Time = 22

smoothSolver:  Solving for Ux, Initial residual = 0.0174802, Final residual = 0.00148549, No Iterations 8
smoothSolver:  Solving for Uy, Initial residual = 0.131871, Final residual = 0.0129881, No Iterations 2
GAMG:  Solving for p, Initial residual = 0.0119562, Final residual = 0.000850246, No Iterations 2
time step continuity errors : sum local = 2.19319e-07, global = 6.64386e-21, cumulative = -2.01967e-17
smoothSolver:  Solving for omega, Initial residual = 2.34293e-05, Final residual = 8.44092e-06, No Iterations 1
smoothSolver:  Solving for k, Initial residual = 0.0286845, Final residual = 0.00218446, No Iterations 3
ExecutionTime = 0.04 s  ClockTime = 5 s

Calculating grad(U).
Time = 23

smoothSolver:  Solving for Ux, Initial residual = 0.0168458, Final residual = 0.00143418, No Iterations 8
smoothSolver:  Solving for Uy, Initial residual = 0.123162, Final residual = 0.00926079, No Iterations 3
GAMG:  Solving for p, Initial residual = 0.0108492, Final residual = 0.000795409, No Iterations 2
time step continuity errors : sum local = 2.07663e-07, global = -2.63068e-18, cumulative = -2.28273e-17
smoothSolver:  Solving for omega, Initial residual = 2.17316e-05, Final residual = 8.75619e-06, No Iterations 1
smoothSolver:  Solving for k, Initial residual = 0.0293164, Final residual = 0.00213491, No Iterations 3
ExecutionTime = 0.04 s  ClockTime = 5 s

Calculating grad(U).
Time = 24

smoothSolver:  Solving for Ux, Initial residual = 0.0162573, Final residual = 0.00138639, No Iterations 8
smoothSolver:  Solving for Uy, Initial residual = 0.114617, Final residual = 0.0111234, No Iterations 2
GAMG:  Solving for p, Initial residual = 0.00987517, Final residual = 0.000710663, No Iterations 2
time step continuity errors : sum local = 1.88704e-07, global = 2.08681e-19, cumulative = -2.26187e-17
smoothSolver:  Solving for omega, Initial residual = 2.26937e-05, Final residual = 8.1443e-06, No Iterations 1
smoothSolver:  Solving for k, Initial residual = 0.0301868, Final residual = 0.00256782, No Iterations 3
ExecutionTime = 0.04 s  ClockTime = 5 s

Calculating grad(U).
Time = 25

smoothSolver:  Solving for Ux, Initial residual = 0.0157078, Final residual = 0.0013416, No Iterations 8
smoothSolver:  Solving for Uy, Initial residual = 0.10671, Final residual = 0.010641, No Iterations 2
GAMG:  Solving for p, Initial residual = 0.00897253, Final residual = 0.000673442, No Iterations 2
time step continuity errors : sum local = 1.76826e-07, global = -1.57491e-18, cumulative = -2.41936e-17
smoothSolver:  Solving for omega, Initial residual = 2.13999e-05, Final residual = 8.35746e-06, No Iterations 1
smoothSolver:  Solving for k, Initial residual = 0.0306542, Final residual = 0.00214127, No Iterations 3
ExecutionTime = 0.04 s  ClockTime = 5 s

Calculating grad(U).
Time = 26

smoothSolver:  Solving for Ux, Initial residual = 0.015195, Final residual = 0.0012996, No Iterations 8
smoothSolver:  Solving for Uy, Initial residual = 0.0994648, Final residual = 0.00764158, No Iterations 3
GAMG:  Solving for p, Initial residual = 0.00814206, Final residual = 0.000616599, No Iterations 2
time step continuity errors : sum local = 1.64159e-07, global = -1.696e-18, cumulative = -2.58896e-17
smoothSolver:  Solving for omega, Initial residual = 2.21811e-05, Final residual = 8.04879e-06, No Iterations 1
smoothSolver:  Solving for k, Initial residual = 0.0311092, Final residual = 0.0017415, No Iterations 3
ExecutionTime = 0.04 s  ClockTime = 5 s

Calculating grad(U).
Time = 27

smoothSolver:  Solving for Ux, Initial residual = 0.0147154, Final residual = 0.00126022, No Iterations 8
smoothSolver:  Solving for Uy, Initial residual = 0.091507, Final residual = 0.00910407, No Iterations 2
GAMG:  Solving for p, Initial residual = 0.0073564, Final residual = 0.000555536, No Iterations 2
time step continuity errors : sum local = 1.43495e-07, global = -2.32073e-18, cumulative = -2.82103e-17
smoothSolver:  Solving for omega, Initial residual = 2.05346e-05, Final residual = 8.01875e-06, No Iterations 1
smoothSolver:  Solving for k, Initial residual = 0.0320574, Final residual = 0.00205189, No Iterations 3
ExecutionTime = 0.04 s  ClockTime = 5 s

Calculating grad(U).
Time = 28

smoothSolver:  Solving for Ux, Initial residual = 0.0142645, Final residual = 0.00122306, No Iterations 8
smoothSolver:  Solving for Uy, Initial residual = 0.0867863, Final residual = 0.00642268, No Iterations 3
GAMG:  Solving for p, Initial residual = 0.00674582, Final residual = 0.000530245, No Iterations 2
time step continuity errors : sum local = 1.40522e-07, global = -1.38522e-18, cumulative = -2.95955e-17
smoothSolver:  Solving for omega, Initial residual = 2.12768e-05, Final residual = 7.98216e-06, No Iterations 1
smoothSolver:  Solving for k, Initial residual = 0.0331826, Final residual = 0.00276184, No Iterations 3
ExecutionTime = 0.04 s  ClockTime = 5 s

Calculating grad(U).
Time = 29

smoothSolver:  Solving for Ux, Initial residual = 0.0138409, Final residual = 0.001188, No Iterations 8
smoothSolver:  Solving for Uy, Initial residual = 0.0841285, Final residual = 0.00784843, No Iterations 2
GAMG:  Solving for p, Initial residual = 0.00630662, Final residual = 0.000481181, No Iterations 2
time step continuity errors : sum local = 1.25177e-07, global = -1.23976e-18, cumulative = -3.08353e-17
smoothSolver:  Solving for omega, Initial residual = 2.08786e-05, Final residual = 8.01956e-06, No Iterations 1
smoothSolver:  Solving for k, Initial residual = 0.0339679, Final residual = 0.00286428, No Iterations 3
ExecutionTime = 0.04 s  ClockTime = 5 s

Calculating grad(U).
Time = 30

smoothSolver:  Solving for Ux, Initial residual = 0.0134411, Final residual = 0.00115477, No Iterations 8
smoothSolver:  Solving for Uy, Initial residual = 0.0758837, Final residual = 0.00753388, No Iterations 2
GAMG:  Solving for p, Initial residual = 0.00571912, Final residual = 0.000451366, No Iterations 2
time step continuity errors : sum local = 1.1609e-07, global = -1.06672e-18, cumulative = -3.1902e-17
smoothSolver:  Solving for omega, Initial residual = 2.08593e-05, Final residual = 7.67562e-06, No Iterations 1
smoothSolver:  Solving for k, Initial residual = 0.0336854, Final residual = 0.00197523, No Iterations 3
ExecutionTime = 0.05 s  ClockTime = 5 s

Calculating grad(U).
Time = 31

smoothSolver:  Solving for Ux, Initial residual = 0.013064, Final residual = 0.00112334, No Iterations 8
smoothSolver:  Solving for Uy, Initial residual = 0.0676535, Final residual = 0.00537107, No Iterations 3
GAMG:  Solving for p, Initial residual = 0.00505849, Final residual = 0.000447372, No Iterations 2
time step continuity errors : sum local = 1.12851e-07, global = -9.09138e-19, cumulative = -3.28111e-17
smoothSolver:  Solving for omega, Initial residual = 2.04659e-05, Final residual = 7.86071e-06, No Iterations 1
smoothSolver:  Solving for k, Initial residual = 0.0349274, Final residual = 0.00247144, No Iterations 3
ExecutionTime = 0.05 s  ClockTime = 5 s

Calculating grad(U).
Time = 32

smoothSolver:  Solving for Ux, Initial residual = 0.0127077, Final residual = 0.00109355, No Iterations 8
smoothSolver:  Solving for Uy, Initial residual = 0.0675419, Final residual = 0.00663654, No Iterations 2
GAMG:  Solving for p, Initial residual = 0.00486905, Final residual = 0.000392655, No Iterations 2
time step continuity errors : sum local = 9.89705e-08, global = -9.51768e-19, cumulative = -3.37629e-17
smoothSolver:  Solving for omega, Initial residual = 2.08454e-05, Final residual = 7.61356e-06, No Iterations 1
smoothSolver:  Solving for k, Initial residual = 0.0359887, Final residual = 0.00315631, No Iterations 3
ExecutionTime = 0.05 s  ClockTime = 5 s

Calculating grad(U).
Time = 33

smoothSolver:  Solving for Ux, Initial residual = 0.0123692, Final residual = 0.00106506, No Iterations 8
smoothSolver:  Solving for Uy, Initial residual = 0.0660084, Final residual = 0.00653792, No Iterations 2
GAMG:  Solving for p, Initial residual = 0.00466587, Final residual = 0.00037311, No Iterations 2
time step continuity errors : sum local = 9.45312e-08, global = -1.9275e-18, cumulative = -3.56904e-17
smoothSolver:  Solving for omega, Initial residual = 2.02686e-05, Final residual = 7.65516e-06, No Iterations 1
smoothSolver:  Solving for k, Initial residual = 0.0352671, Final residual = 0.00199229, No Iterations 3
ExecutionTime = 0.05 s  ClockTime = 5 s

Calculating grad(U).
Time = 34

smoothSolver:  Solving for Ux, Initial residual = 0.0120483, Final residual = 0.00103797, No Iterations 8
smoothSolver:  Solving for Uy, Initial residual = 0.0595658, Final residual = 0.00454612, No Iterations 3
GAMG:  Solving for p, Initial residual = 0.00457162, Final residual = 0.000366567, No Iterations 2
time step continuity errors : sum local = 9.07474e-08, global = -1.62752e-18, cumulative = -3.73179e-17
smoothSolver:  Solving for omega, Initial residual = 2.03763e-05, Final residual = 7.57337e-06, No Iterations 1
smoothSolver:  Solving for k, Initial residual = 0.0360555, Final residual = 0.00229152, No Iterations 3
ExecutionTime = 0.05 s  ClockTime = 5 s

Calculating grad(U).
Time = 35

smoothSolver:  Solving for Ux, Initial residual = 0.0117435, Final residual = 0.0010121, No Iterations 8
smoothSolver:  Solving for Uy, Initial residual = 0.0620903, Final residual = 0.00571498, No Iterations 2
GAMG:  Solving for p, Initial residual = 0.00468029, Final residual = 0.000283143, No Iterations 2
time step continuity errors : sum local = 6.98952e-08, global = 5.25225e-20, cumulative = -3.72654e-17
smoothSolver:  Solving for omega, Initial residual = 2.01946e-05, Final residual = 7.61506e-06, No Iterations 1
smoothSolver:  Solving for k, Initial residual = 0.0373295, Final residual = 0.00325176, No Iterations 3
ExecutionTime = 0.05 s  ClockTime = 5 s

Calculating grad(U).
Time = 36

smoothSolver:  Solving for Ux, Initial residual = 0.0114524, Final residual = 0.000987154, No Iterations 8
smoothSolver:  Solving for Uy, Initial residual = 0.058467, Final residual = 0.00555203, No Iterations 2
GAMG:  Solving for p, Initial residual = 0.00440361, Final residual = 0.00023678, No Iterations 2
time step continuity errors : sum local = 5.82405e-08, global = -3.17577e-18, cumulative = -4.04412e-17
smoothSolver:  Solving for omega, Initial residual = 2.03838e-05, Final residual = 7.52207e-06, No Iterations 1
smoothSolver:  Solving for k, Initial residual = 0.0361288, Final residual = 0.00185269, No Iterations 3
ExecutionTime = 0.05 s  ClockTime = 5 s

Calculating grad(U).
Time = 37

smoothSolver:  Solving for Ux, Initial residual = 0.0111753, Final residual = 0.00096332, No Iterations 8
smoothSolver:  Solving for Uy, Initial residual = 0.053719, Final residual = 0.00497136, No Iterations 2
GAMG:  Solving for p, Initial residual = 0.00490229, Final residual = 0.000315788, No Iterations 2
time step continuity errors : sum local = 7.47225e-08, global = -2.55017e-18, cumulative = -4.29914e-17
smoothSolver:  Solving for omega, Initial residual = 2.01929e-05, Final residual = 7.61081e-06, No Iterations 1
smoothSolver:  Solving for k, Initial residual = 0.0372021, Final residual = 0.00235959, No Iterations 3
ExecutionTime = 0.05 s  ClockTime = 5 s

Calculating grad(U).
Time = 38

smoothSolver:  Solving for Ux, Initial residual = 0.0109102, Final residual = 0.000940399, No Iterations 8
smoothSolver:  Solving for Uy, Initial residual = 0.0725259, Final residual = 0.00590775, No Iterations 2
GAMG:  Solving for p, Initial residual = 0.0051654, Final residual = 0.000328089, No Iterations 2
time step continuity errors : sum local = 7.77806e-08, global = -1.70968e-18, cumulative = -4.4701e-17
smoothSolver:  Solving for omega, Initial residual = 2.04856e-05, Final residual = 7.57107e-06, No Iterations 1
smoothSolver:  Solving for k, Initial residual = 0.038103, Final residual = 0.00340563, No Iterations 3
ExecutionTime = 0.05 s  ClockTime = 5 s

Calculating grad(U).
Time = 39

smoothSolver:  Solving for Ux, Initial residual = 0.010656, Final residual = 0.000917885, No Iterations 8
smoothSolver:  Solving for Uy, Initial residual = 0.0754498, Final residual = 0.00589738, No Iterations 2
GAMG:  Solving for p, Initial residual = 0.00636716, Final residual = 0.000257494, No Iterations 2
time step continuity errors : sum local = 6.14126e-08, global = -2.41602e-18, cumulative = -4.71171e-17
smoothSolver:  Solving for omega, Initial residual = 2.02531e-05, Final residual = 7.50248e-06, No Iterations 1
smoothSolver:  Solving for k, Initial residual = 0.0367095, Final residual = 0.00183705, No Iterations 3
ExecutionTime = 0.06 s  ClockTime = 5 s

Calculating grad(U).
Time = 40

smoothSolver:  Solving for Ux, Initial residual = 0.0104126, Final residual = 0.000896347, No Iterations 8
smoothSolver:  Solving for Uy, Initial residual = 0.0719793, Final residual = 0.00575683, No Iterations 2
GAMG:  Solving for p, Initial residual = 0.00880711, Final residual = 0.000474538, No Iterations 2
time step continuity errors : sum local = 1.13542e-07, global = -1.39501e-18, cumulative = -4.85121e-17
smoothSolver:  Solving for omega, Initial residual = 2.0421e-05, Final residual = 7.45849e-06, No Iterations 1
smoothSolver:  Solving for k, Initial residual = 0.0375284, Final residual = 0.00245065, No Iterations 3
ExecutionTime = 0.06 s  ClockTime = 5 s

Calculating grad(U).
Time = 41

smoothSolver:  Solving for Ux, Initial residual = 0.0101782, Final residual = 0.000875244, No Iterations 8
smoothSolver:  Solving for Uy, Initial residual = 0.0932801, Final residual = 0.00702479, No Iterations 2
GAMG:  Solving for p, Initial residual = 0.00927725, Final residual = 0.000452033, No Iterations 2
time step continuity errors : sum local = 1.10346e-07, global = -3.1498e-18, cumulative = -5.16619e-17
smoothSolver:  Solving for omega, Initial residual = 2.0426e-05, Final residual = 7.61465e-06, No Iterations 1
smoothSolver:  Solving for k, Initial residual = 0.0386361, Final residual = 0.00380974, No Iterations 3
ExecutionTime = 0.06 s  ClockTime = 5 s

Calculating grad(U).
Time = 42

smoothSolver:  Solving for Ux, Initial residual = 0.00995139, Final residual = 0.000854077, No Iterations 8
smoothSolver:  Solving for Uy, Initial residual = 0.102349, Final residual = 0.00690486, No Iterations 2
GAMG:  Solving for p, Initial residual = 0.00861777, Final residual = 0.000434551, No Iterations 2
time step continuity errors : sum local = 1.03617e-07, global = -1.34062e-18, cumulative = -5.30025e-17
smoothSolver:  Solving for omega, Initial residual = 2.07286e-05, Final residual = 7.58293e-06, No Iterations 1
smoothSolver:  Solving for k, Initial residual = 0.0363173, Final residual = 0.00179268, No Iterations 3
ExecutionTime = 0.06 s  ClockTime = 5 s

Calculating grad(U).
Time = 43

smoothSolver:  Solving for Ux, Initial residual = 0.00973344, Final residual = 0.000833811, No Iterations 8
smoothSolver:  Solving for Uy, Initial residual = 0.126597, Final residual = 0.00788905, No Iterations 2
GAMG:  Solving for p, Initial residual = 0.013642, Final residual = 0.000899621, No Iterations 2
time step continuity errors : sum local = 2.17274e-07, global = -3.94707e-18, cumulative = -5.69496e-17
smoothSolver:  Solving for omega, Initial residual = 2.07154e-05, Final residual = 7.6173e-06, No Iterations 1
smoothSolver:  Solving for k, Initial residual = 0.0369458, Final residual = 0.00230947, No Iterations 3
ExecutionTime = 0.06 s  ClockTime = 5 s

Calculating grad(U).
Time = 44

smoothSolver:  Solving for Ux, Initial residual = 0.00952169, Final residual = 0.000813727, No Iterations 8
smoothSolver:  Solving for Uy, Initial residual = 0.158123, Final residual = 0.0100782, No Iterations 2
GAMG:  Solving for p, Initial residual = 0.0139767, Final residual = 0.00116088, No Iterations 2
time step continuity errors : sum local = 2.69191e-07, global = -8.95253e-19, cumulative = -5.78448e-17
smoothSolver:  Solving for omega, Initial residual = 2.1383e-05, Final residual = 7.77656e-06, No Iterations 1
smoothSolver:  Solving for k, Initial residual = 0.0373974, Final residual = 0.00370473, No Iterations 3
ExecutionTime = 0.06 s  ClockTime = 5 s

Calculating grad(U).
Time = 45

smoothSolver:  Solving for Ux, Initial residual = 0.00931415, Final residual = 0.000792871, No Iterations 8
smoothSolver:  Solving for Uy, Initial residual = 0.173752, Final residual = 0.0101714, No Iterations 2
GAMG:  Solving for p, Initial residual = 0.0149831, Final residual = 0.000730993, No Iterations 2
time step continuity errors : sum local = 1.69001e-07, global = 1.48297e-19, cumulative = -5.76965e-17
smoothSolver:  Solving for omega, Initial residual = 2.24145e-05, Final residual = 8.46591e-06, No Iterations 1
smoothSolver:  Solving for k, Initial residual = 0.0353786, Final residual = 0.00189606, No Iterations 3
ExecutionTime = 0.06 s  ClockTime = 5 s

Calculating grad(U).
Time = 46

smoothSolver:  Solving for Ux, Initial residual = 0.00911272, Final residual = 0.000772694, No Iterations 8
smoothSolver:  Solving for Uy, Initial residual = 0.189393, Final residual = 0.0110432, No Iterations 2
GAMG:  Solving for p, Initial residual = 0.0213978, Final residual = 0.00120358, No Iterations 2
time step continuity errors : sum local = 2.80158e-07, global = -2.59689e-18, cumulative = -6.02934e-17
smoothSolver:  Solving for omega, Initial residual = 2.35199e-05, Final residual = 8.75856e-06, No Iterations 1
smoothSolver:  Solving for k, Initial residual = 0.0350354, Final residual = 0.00242974, No Iterations 3
ExecutionTime = 0.06 s  ClockTime = 5 s

Calculating grad(U).
Time = 47

smoothSolver:  Solving for Ux, Initial residual = 0.00891536, Final residual = 0.000752214, No Iterations 8
smoothSolver:  Solving for Uy, Initial residual = 0.239226, Final residual = 0.0134646, No Iterations 2
GAMG:  Solving for p, Initial residual = 0.0263915, Final residual = 0.00201303, No Iterations 2
time step continuity errors : sum local = 4.51652e-07, global = -1.591e-18, cumulative = -6.18844e-17
smoothSolver:  Solving for omega, Initial residual = 2.53191e-05, Final residual = 9.3397e-06, No Iterations 1
smoothSolver:  Solving for k, Initial residual = 0.0349606, Final residual = 0.00307021, No Iterations 3
ExecutionTime = 0.06 s  ClockTime = 5 s

Calculating grad(U).
Time = 48

smoothSolver:  Solving for Ux, Initial residual = 0.00871888, Final residual = 0.000731067, No Iterations 8
smoothSolver:  Solving for Uy, Initial residual = 0.249822, Final residual = 0.0150976, No Iterations 2
GAMG:  Solving for p, Initial residual = 0.0257208, Final residual = 0.00232169, No Iterations 2
time step continuity errors : sum local = 4.94013e-07, global = -1.35278e-18, cumulative = -6.32372e-17
smoothSolver:  Solving for omega, Initial residual = 2.70445e-05, Final residual = 2.37882e-06, No Iterations 2
smoothSolver:  Solving for k, Initial residual = 0.0338756, Final residual = 0.00283235, No Iterations 3
ExecutionTime = 0.07 s  ClockTime = 5 s

Calculating grad(U).
Time = 49

smoothSolver:  Solving for Ux, Initial residual = 0.00852569, Final residual = 0.000709889, No Iterations 8
smoothSolver:  Solving for Uy, Initial residual = 0.284005, Final residual = 0.0153414, No Iterations 2
GAMG:  Solving for p, Initial residual = 0.0275308, Final residual = 0.00202551, No Iterations 2
time step continuity errors : sum local = 4.40465e-07, global = 1.05496e-18, cumulative = -6.21822e-17
smoothSolver:  Solving for omega, Initial residual = 2.31474e-05, Final residual = 9.32155e-06, No Iterations 1
smoothSolver:  Solving for k, Initial residual = 0.032303, Final residual = 0.00222921, No Iterations 3
ExecutionTime = 0.07 s  ClockTime = 5 s

Calculating grad(U).
Time = 50

smoothSolver:  Solving for Ux, Initial residual = 0.00833295, Final residual = 0.000688624, No Iterations 8
smoothSolver:  Solving for Uy, Initial residual = 0.344963, Final residual = 0.0190206, No Iterations 2
GAMG:  Solving for p, Initial residual = 0.0407677, Final residual = 0.00346592, No Iterations 2
time step continuity errors : sum local = 7.33776e-07, global = -1.81219e-18, cumulative = -6.39944e-17
smoothSolver:  Solving for omega, Initial residual = 2.77256e-05, Final residual = 2.7584e-06, No Iterations 2
smoothSolver:  Solving for k, Initial residual = 0.032019, Final residual = 0.00271514, No Iterations 3
ExecutionTime = 0.07 s  ClockTime = 5 s

Calculating grad(U).
Time = 51

smoothSolver:  Solving for Ux, Initial residual = 0.00813934, Final residual = 0.000666682, No Iterations 8
smoothSolver:  Solving for Uy, Initial residual = 0.349696, Final residual = 0.0215657, No Iterations 2
GAMG:  Solving for p, Initial residual = 0.0375073, Final residual = 0.0035473, No Iterations 2
time step continuity errors : sum local = 7.29715e-07, global = -4.40483e-18, cumulative = -6.83992e-17
smoothSolver:  Solving for omega, Initial residual = 2.56047e-05, Final residual = 3.49425e-06, No Iterations 2
smoothSolver:  Solving for k, Initial residual = 0.0312636, Final residual = 0.00159993, No Iterations 4
ExecutionTime = 0.07 s  ClockTime = 5 s

Calculating grad(U).
Time = 52

smoothSolver:  Solving for Ux, Initial residual = 0.00794155, Final residual = 0.000643485, No Iterations 8
smoothSolver:  Solving for Uy, Initial residual = 0.320421, Final residual = 0.0217345, No Iterations 2
GAMG:  Solving for p, Initial residual = 0.0380366, Final residual = 0.00177675, No Iterations 2
time step continuity errors : sum local = 3.57324e-07, global = -2.47635e-18, cumulative = -7.08756e-17
smoothSolver:  Solving for omega, Initial residual = 2.702e-05, Final residual = 4.2065e-06, No Iterations 2
smoothSolver:  Solving for k, Initial residual = 0.0289325, Final residual = 0.00236044, No Iterations 3
ExecutionTime = 0.07 s  ClockTime = 5 s

Calculating grad(U).
Time = 53

smoothSolver:  Solving for Ux, Initial residual = 0.00775071, Final residual = 0.000622401, No Iterations 8
smoothSolver:  Solving for Uy, Initial residual = 0.378353, Final residual = 0.022686, No Iterations 2
GAMG:  Solving for p, Initial residual = 0.0538513, Final residual = 0.00310697, No Iterations 2
time step continuity errors : sum local = 6.13562e-07, global = -2.69271e-18, cumulative = -7.35683e-17
smoothSolver:  Solving for omega, Initial residual = 2.6137e-05, Final residual = 3.74714e-06, No Iterations 2
smoothSolver:  Solving for k, Initial residual = 0.0270539, Final residual = 0.00195205, No Iterations 3
ExecutionTime = 0.07 s  ClockTime = 5 s

Calculating grad(U).
Time = 54

smoothSolver:  Solving for Ux, Initial residual = 0.00756019, Final residual = 0.000602403, No Iterations 8
smoothSolver:  Solving for Uy, Initial residual = 0.422213, Final residual = 0.0265035, No Iterations 2
GAMG:  Solving for p, Initial residual = 0.053605, Final residual = 0.00398501, No Iterations 2
time step continuity errors : sum local = 8.25212e-07, global = 1.1329e-21, cumulative = -7.35672e-17
smoothSolver:  Solving for omega, Initial residual = 2.75965e-05, Final residual = 3.9574e-06, No Iterations 2
smoothSolver:  Solving for k, Initial residual = 0.0260136, Final residual = 0.00258484, No Iterations 3
ExecutionTime = 0.07 s  ClockTime = 5 s

Calculating grad(U).
Time = 55

smoothSolver:  Solving for Ux, Initial residual = 0.00736786, Final residual = 0.000582196, No Iterations 8
smoothSolver:  Solving for Uy, Initial residual = 0.389348, Final residual = 0.0243888, No Iterations 2
GAMG:  Solving for p, Initial residual = 0.0431384, Final residual = 0.00227278, No Iterations 2
time step continuity errors : sum local = 4.32832e-07, global = -2.87938e-20, cumulative = -7.3596e-17
smoothSolver:  Solving for omega, Initial residual = 2.70236e-05, Final residual = 3.95668e-06, No Iterations 2
smoothSolver:  Solving for k, Initial residual = 0.0237706, Final residual = 0.00142797, No Iterations 4
ExecutionTime = 0.07 s  ClockTime = 5 s

Calculating grad(U).
Time = 56

smoothSolver:  Solving for Ux, Initial residual = 0.00716595, Final residual = 0.00056147, No Iterations 8
smoothSolver:  Solving for Uy, Initial residual = 0.423247, Final residual = 0.0261197, No Iterations 2
GAMG:  Solving for p, Initial residual = 0.040964, Final residual = 0.00233208, No Iterations 2
time step continuity errors : sum local = 4.13621e-07, global = -1.99975e-18, cumulative = -7.55957e-17
smoothSolver:  Solving for omega, Initial residual = 2.7729e-05, Final residual = 3.53607e-06, No Iterations 2
smoothSolver:  Solving for k, Initial residual = 0.0210423, Final residual = 0.0016011, No Iterations 3
ExecutionTime = 0.07 s  ClockTime = 5 s

Calculating grad(U).
Time = 57

smoothSolver:  Solving for Ux, Initial residual = 0.00697017, Final residual = 0.000543261, No Iterations 8
smoothSolver:  Solving for Uy, Initial residual = 0.474584, Final residual = 0.0290569, No Iterations 2
GAMG:  Solving for p, Initial residual = 0.0491555, Final residual = 0.00309532, No Iterations 2
time step continuity errors : sum local = 5.78902e-07, global = -4.46217e-18, cumulative = -8.00579e-17
smoothSolver:  Solving for omega, Initial residual = 2.70073e-05, Final residual = 3.62534e-06, No Iterations 2
smoothSolver:  Solving for k, Initial residual = 0.0211772, Final residual = 0.00195144, No Iterations 3
ExecutionTime = 0.08 s  ClockTime = 5 s

Calculating grad(U).
Time = 58

smoothSolver:  Solving for Ux, Initial residual = 0.00677104, Final residual = 0.000524368, No Iterations 8
smoothSolver:  Solving for Uy, Initial residual = 0.422715, Final residual = 0.0251688, No Iterations 2
GAMG:  Solving for p, Initial residual = 0.0442954, Final residual = 0.00222065, No Iterations 2
time step continuity errors : sum local = 3.60591e-07, global = -3.948e-18, cumulative = -8.40059e-17
smoothSolver:  Solving for omega, Initial residual = 2.65733e-05, Final residual = 3.57772e-06, No Iterations 2
smoothSolver:  Solving for k, Initial residual = 0.0196891, Final residual = 0.000972064, No Iterations 4
ExecutionTime = 0.08 s  ClockTime = 5 s

Calculating grad(U).
Time = 59

smoothSolver:  Solving for Ux, Initial residual = 0.00656858, Final residual = 0.000505301, No Iterations 8
smoothSolver:  Solving for Uy, Initial residual = 0.451931, Final residual = 0.0262072, No Iterations 2
GAMG:  Solving for p, Initial residual = 0.0459573, Final residual = 0.00335572, No Iterations 2
time step continuity errors : sum local = 5.64455e-07, global = -2.86207e-18, cumulative = -8.6868e-17
smoothSolver:  Solving for omega, Initial residual = 2.66448e-05, Final residual = 3.71555e-06, No Iterations 2
smoothSolver:  Solving for k, Initial residual = 0.0180088, Final residual = 0.00144221, No Iterations 3
ExecutionTime = 0.08 s  ClockTime = 5 s

Calculating grad(U).
Time = 60

smoothSolver:  Solving for Ux, Initial residual = 0.00637365, Final residual = 0.000488289, No Iterations 8
smoothSolver:  Solving for Uy, Initial residual = 0.510209, Final residual = 0.0277906, No Iterations 2
GAMG:  Solving for p, Initial residual = 0.0440072, Final residual = 0.0033864, No Iterations 2
time step continuity errors : sum local = 5.84303e-07, global = -6.03268e-18, cumulative = -9.29006e-17
smoothSolver:  Solving for omega, Initial residual = 2.59541e-05, Final residual = 9.53311e-06, No Iterations 1
smoothSolver:  Solving for k, Initial residual = 0.0183599, Final residual = 0.00087705, No Iterations 4
ExecutionTime = 0.08 s  ClockTime = 5 s

Calculating grad(U).
Time = 61

smoothSolver:  Solving for Ux, Initial residual = 0.00617706, Final residual = 0.000470442, No Iterations 8
smoothSolver:  Solving for Uy, Initial residual = 0.46421, Final residual = 0.0265214, No Iterations 2
GAMG:  Solving for p, Initial residual = 0.0432841, Final residual = 0.00174055, No Iterations 2
time step continuity errors : sum local = 2.75184e-07, global = -3.22892e-18, cumulative = -9.61296e-17
smoothSolver:  Solving for omega, Initial residual = 2.96196e-05, Final residual = 2.34272e-06, No Iterations 2
smoothSolver:  Solving for k, Initial residual = 0.0171751, Final residual = 0.00164747, No Iterations 3
ExecutionTime = 0.08 s  ClockTime = 5 s

Calculating grad(U).
Time = 62

smoothSolver:  Solving for Ux, Initial residual = 0.00598697, Final residual = 0.00045378, No Iterations 8
smoothSolver:  Solving for Uy, Initial residual = 0.502211, Final residual = 0.025851, No Iterations 2
GAMG:  Solving for p, Initial residual = 0.0492602, Final residual = 0.002913, No Iterations 2
time step continuity errors : sum local = 4.48985e-07, global = -9.5524e-19, cumulative = -9.70848e-17
smoothSolver:  Solving for omega, Initial residual = 2.61723e-05, Final residual = 9.25774e-06, No Iterations 1
smoothSolver:  Solving for k, Initial residual = 0.0163019, Final residual = 0.00130124, No Iterations 3
ExecutionTime = 0.08 s  ClockTime = 5 s

Calculating grad(U).
Time = 63

smoothSolver:  Solving for Ux, Initial residual = 0.00580362, Final residual = 0.000438067, No Iterations 8
smoothSolver:  Solving for Uy, Initial residual = 0.524042, Final residual = 0.0268141, No Iterations 2
GAMG:  Solving for p, Initial residual = 0.0535108, Final residual = 0.00296481, No Iterations 2
time step continuity errors : sum local = 4.80417e-07, global = -1.09643e-18, cumulative = -9.81812e-17
smoothSolver:  Solving for omega, Initial residual = 2.96323e-05, Final residual = 2.51887e-06, No Iterations 2
smoothSolver:  Solving for k, Initial residual = 0.0167015, Final residual = 0.000866445, No Iterations 4
ExecutionTime = 0.08 s  ClockTime = 5 s

Calculating grad(U).
Time = 64

smoothSolver:  Solving for Ux, Initial residual = 0.00562268, Final residual = 0.00042181, No Iterations 8
smoothSolver:  Solving for Uy, Initial residual = 0.548608, Final residual = 0.0276847, No Iterations 2
GAMG:  Solving for p, Initial residual = 0.051469, Final residual = 0.00292594, No Iterations 2
time step continuity errors : sum local = 4.4965e-07, global = -7.94619e-19, cumulative = -9.89758e-17
smoothSolver:  Solving for omega, Initial residual = 2.55361e-05, Final residual = 3.04767e-06, No Iterations 2
smoothSolver:  Solving for k, Initial residual = 0.0157499, Final residual = 0.00144581, No Iterations 3
ExecutionTime = 0.08 s  ClockTime = 5 s

Calculating grad(U).
Time = 65

smoothSolver:  Solving for Ux, Initial residual = 0.00545039, Final residual = 0.00040652, No Iterations 8
smoothSolver:  Solving for Uy, Initial residual = 0.559832, Final residual = 0.0295688, No Iterations 2
GAMG:  Solving for p, Initial residual = 0.054583, Final residual = 0.00299227, No Iterations 2
time step continuity errors : sum local = 4.61932e-07, global = -4.50029e-18, cumulative = -1.03476e-16
smoothSolver:  Solving for omega, Initial residual = 2.56021e-05, Final residual = 8.74693e-06, No Iterations 1
smoothSolver:  Solving for k, Initial residual = 0.0157169, Final residual = 0.000713127, No Iterations 4
ExecutionTime = 0.08 s  ClockTime = 5 s

Calculating grad(U).
Time = 66

smoothSolver:  Solving for Ux, Initial residual = 0.00528132, Final residual = 0.000391303, No Iterations 8
smoothSolver:  Solving for Uy, Initial residual = 0.556932, Final residual = 0.0237676, No Iterations 2
GAMG:  Solving for p, Initial residual = 0.059443, Final residual = 0.00271565, No Iterations 2
time step continuity errors : sum local = 3.90369e-07, global = -1.32449e-18, cumulative = -1.04801e-16
smoothSolver:  Solving for omega, Initial residual = 2.56319e-05, Final residual = 9.7051e-06, No Iterations 1
smoothSolver:  Solving for k, Initial residual = 0.015209, Final residual = 0.000701735, No Iterations 4
ExecutionTime = 0.09 s  ClockTime = 5 s

Calculating grad(U).
Time = 67

smoothSolver:  Solving for Ux, Initial residual = 0.00511631, Final residual = 0.000376748, No Iterations 8
smoothSolver:  Solving for Uy, Initial residual = 0.592054, Final residual = 0.0295287, No Iterations 2
GAMG:  Solving for p, Initial residual = 0.0581336, Final residual = 0.0027579, No Iterations 2
time step continuity errors : sum local = 3.94121e-07, global = -3.51332e-18, cumulative = -1.08314e-16
smoothSolver:  Solving for omega, Initial residual = 2.89312e-05, Final residual = 9.96531e-06, No Iterations 1
smoothSolver:  Solving for k, Initial residual = 0.0149295, Final residual = 0.000660367, No Iterations 4
ExecutionTime = 0.09 s  ClockTime = 5 s

Calculating grad(U).
Time = 68

smoothSolver:  Solving for Ux, Initial residual = 0.00495777, Final residual = 0.000362261, No Iterations 8
smoothSolver:  Solving for Uy, Initial residual = 0.523709, Final residual = 0.0265654, No Iterations 2
GAMG:  Solving for p, Initial residual = 0.0541205, Final residual = 0.00234561, No Iterations 2
time step continuity errors : sum local = 3.06337e-07, global = 6.8659e-19, cumulative = -1.07627e-16
smoothSolver:  Solving for omega, Initial residual = 2.98348e-05, Final residual = 9.5177e-06, No Iterations 1
smoothSolver:  Solving for k, Initial residual = 0.0145067, Final residual = 0.00121947, No Iterations 3
ExecutionTime = 0.09 s  ClockTime = 5 s

Calculating grad(U).
Time = 69

smoothSolver:  Solving for Ux, Initial residual = 0.00480573, Final residual = 0.000349035, No Iterations 8
smoothSolver:  Solving for Uy, Initial residual = 0.573488, Final residual = 0.0242336, No Iterations 2
GAMG:  Solving for p, Initial residual = 0.0670296, Final residual = 0.00351943, No Iterations 2
time step continuity errors : sum local = 4.33846e-07, global = 1.52034e-18, cumulative = -1.06107e-16
smoothSolver:  Solving for omega, Initial residual = 2.8308e-05, Final residual = 9.60002e-06, No Iterations 1
smoothSolver:  Solving for k, Initial residual = 0.0147093, Final residual = 0.000734617, No Iterations 4
ExecutionTime = 0.09 s  ClockTime = 5 s

Calculating grad(U).
Time = 70

smoothSolver:  Solving for Ux, Initial residual = 0.00465732, Final residual = 0.000335679, No Iterations 8
smoothSolver:  Solving for Uy, Initial residual = 0.600499, Final residual = 0.0284636, No Iterations 2
GAMG:  Solving for p, Initial residual = 0.0629802, Final residual = 0.00338272, No Iterations 2
time step continuity errors : sum local = 4.19274e-07, global = 1.2608e-18, cumulative = -1.04846e-16
smoothSolver:  Solving for omega, Initial residual = 2.82517e-05, Final residual = 8.71909e-06, No Iterations 1
smoothSolver:  Solving for k, Initial residual = 0.0142434, Final residual = 0.000710183, No Iterations 4
ExecutionTime = 0.09 s  ClockTime = 5 s

Calculating grad(U).
Time = 71

smoothSolver:  Solving for Ux, Initial residual = 0.00451476, Final residual = 0.000448787, No Iterations 7
smoothSolver:  Solving for Uy, Initial residual = 0.600224, Final residual = 0.0348549, No Iterations 2
GAMG:  Solving for p, Initial residual = 0.0571255, Final residual = 0.0028924, No Iterations 2
time step continuity errors : sum local = 3.33362e-07, global = -3.60744e-18, cumulative = -1.08454e-16
smoothSolver:  Solving for omega, Initial residual = 2.61114e-05, Final residual = 8.64111e-06, No Iterations 1
smoothSolver:  Solving for k, Initial residual = 0.0133019, Final residual = 0.00122034, No Iterations 3
ExecutionTime = 0.09 s  ClockTime = 5 s

Calculating grad(U).
Time = 72

smoothSolver:  Solving for Ux, Initial residual = 0.00437935, Final residual = 0.000432239, No Iterations 7
smoothSolver:  Solving for Uy, Initial residual = 0.532828, Final residual = 0.0285755, No Iterations 2
GAMG:  Solving for p, Initial residual = 0.0604003, Final residual = 0.00363354, No Iterations 2
time step continuity errors : sum local = 4.2278e-07, global = -1.17221e-18, cumulative = -1.09626e-16
smoothSolver:  Solving for omega, Initial residual = 2.68093e-05, Final residual = 7.85442e-06, No Iterations 1
smoothSolver:  Solving for k, Initial residual = 0.0134087, Final residual = 0.000826317, No Iterations 4
ExecutionTime = 0.09 s  ClockTime = 5 s

Calculating grad(U).
Time = 73

smoothSolver:  Solving for Ux, Initial residual = 0.00428654, Final residual = 0.000415548, No Iterations 7
smoothSolver:  Solving for Uy, Initial residual = 0.474244, Final residual = 0.0217328, No Iterations 2
GAMG:  Solving for p, Initial residual = 0.0583377, Final residual = 0.00265326, No Iterations 2
time step continuity errors : sum local = 3.17933e-07, global = -1.54131e-18, cumulative = -1.11167e-16
smoothSolver:  Solving for omega, Initial residual = 2.49677e-05, Final residual = 7.30462e-06, No Iterations 1
smoothSolver:  Solving for k, Initial residual = 0.0128518, Final residual = 0.00125461, No Iterations 3
ExecutionTime = 0.09 s  ClockTime = 5 s

Calculating grad(U).
Time = 74

smoothSolver:  Solving for Ux, Initial residual = 0.00423525, Final residual = 0.000400311, No Iterations 7
smoothSolver:  Solving for Uy, Initial residual = 0.617657, Final residual = 0.0342472, No Iterations 2
GAMG:  Solving for p, Initial residual = 0.0574492, Final residual = 0.00271548, No Iterations 2
time step continuity errors : sum local = 2.99841e-07, global = -5.03391e-18, cumulative = -1.16201e-16
smoothSolver:  Solving for omega, Initial residual = 2.36448e-05, Final residual = 6.60757e-06, No Iterations 1
smoothSolver:  Solving for k, Initial residual = 0.0125396, Final residual = 0.00121581, No Iterations 3
ExecutionTime = 0.09 s  ClockTime = 5 s

Calculating grad(U).
Time = 75

smoothSolver:  Solving for Ux, Initial residual = 0.00420721, Final residual = 0.000386311, No Iterations 7
smoothSolver:  Solving for Uy, Initial residual = 0.592368, Final residual = 0.0361725, No Iterations 2
GAMG:  Solving for p, Initial residual = 0.0633039, Final residual = 0.00287726, No Iterations 2
time step continuity errors : sum local = 3.04669e-07, global = -2.20616e-18, cumulative = -1.18407e-16
smoothSolver:  Solving for omega, Initial residual = 2.19076e-05, Final residual = 6.05783e-06, No Iterations 1
smoothSolver:  Solving for k, Initial residual = 0.0119504, Final residual = 0.000655566, No Iterations 4
ExecutionTime = 0.09 s  ClockTime = 5 s

Calculating grad(U).
Time = 76

smoothSolver:  Solving for Ux, Initial residual = 0.00417337, Final residual = 0.00037819, No Iterations 7
smoothSolver:  Solving for Uy, Initial residual = 0.505454, Final residual = 0.0319361, No Iterations 2
GAMG:  Solving for p, Initial residual = 0.0563374, Final residual = 0.00252168, No Iterations 2
time step continuity errors : sum local = 2.61661e-07, global = -4.2881e-18, cumulative = -1.22695e-16
smoothSolver:  Solving for omega, Initial residual = 2.04944e-05, Final residual = 5.33139e-06, No Iterations 1
smoothSolver:  Solving for k, Initial residual = 0.011398, Final residual = 0.000507762, No Iterations 4
ExecutionTime = 0.09 s  ClockTime = 5 s

Calculating grad(U).
Time = 77

smoothSolver:  Solving for Ux, Initial residual = 0.00411406, Final residual = 0.000369543, No Iterations 7
smoothSolver:  Solving for Uy, Initial residual = 0.517138, Final residual = 0.0324784, No Iterations 2
GAMG:  Solving for p, Initial residual = 0.0548585, Final residual = 0.00265477, No Iterations 2
time step continuity errors : sum local = 2.54751e-07, global = -3.51404e-18, cumulative = -1.26209e-16
smoothSolver:  Solving for omega, Initial residual = 1.90435e-05, Final residual = 5.27958e-06, No Iterations 1
smoothSolver:  Solving for k, Initial residual = 0.0108495, Final residual = 0.000915156, No Iterations 3
ExecutionTime = 0.09 s  ClockTime = 5 s

Calculating grad(U).
Time = 78

smoothSolver:  Solving for Ux, Initial residual = 0.00403192, Final residual = 0.000359353, No Iterations 7
smoothSolver:  Solving for Uy, Initial residual = 0.550775, Final residual = 0.0307891, No Iterations 2
GAMG:  Solving for p, Initial residual = 0.0659844, Final residual = 0.00445476, No Iterations 2
time step continuity errors : sum local = 4.07007e-07, global = -2.12628e-18, cumulative = -1.28336e-16
smoothSolver:  Solving for omega, Initial residual = 1.84761e-05, Final residual = 5.0032e-06, No Iterations 1
smoothSolver:  Solving for k, Initial residual = 0.0105484, Final residual = 0.000575657, No Iterations 4
ExecutionTime = 0.09 s  ClockTime = 5 s

Calculating grad(U).
Time = 79

smoothSolver:  Solving for Ux, Initial residual = 0.00395654, Final residual = 0.000351333, No Iterations 7
smoothSolver:  Solving for Uy, Initial residual = 0.516641, Final residual = 0.0340011, No Iterations 2
GAMG:  Solving for p, Initial residual = 0.057022, Final residual = 0.00381839, No Iterations 2
time step continuity errors : sum local = 3.63694e-07, global = -3.02623e-18, cumulative = -1.31362e-16
smoothSolver:  Solving for omega, Initial residual = 1.78833e-05, Final residual = 5.02935e-06, No Iterations 1
smoothSolver:  Solving for k, Initial residual = 0.00987354, Final residual = 0.000469966, No Iterations 4
ExecutionTime = 0.1 s  ClockTime = 5 s

Calculating grad(U).
Time = 80

smoothSolver:  Solving for Ux, Initial residual = 0.0038969, Final residual = 0.000345147, No Iterations 7
smoothSolver:  Solving for Uy, Initial residual = 0.474237, Final residual = 0.0308103, No Iterations 2
GAMG:  Solving for p, Initial residual = 0.0550205, Final residual = 0.00347054, No Iterations 2
time step continuity errors : sum local = 3.15871e-07, global = -2.74502e-18, cumulative = -1.34107e-16
smoothSolver:  Solving for omega, Initial residual = 1.79617e-05, Final residual = 5.13991e-06, No Iterations 1
smoothSolver:  Solving for k, Initial residual = 0.00930669, Final residual = 0.000854212, No Iterations 3
ExecutionTime = 0.1 s  ClockTime = 5 s

Calculating grad(U).
Time = 81

smoothSolver:  Solving for Ux, Initial residual = 0.00385323, Final residual = 0.00033969, No Iterations 7
smoothSolver:  Solving for Uy, Initial residual = 0.553999, Final residual = 0.0349608, No Iterations 2
GAMG:  Solving for p, Initial residual = 0.0573682, Final residual = 0.00245041, No Iterations 2
time step continuity errors : sum local = 2.12692e-07, global = -7.65753e-19, cumulative = -1.34873e-16
smoothSolver:  Solving for omega, Initial residual = 1.81657e-05, Final residual = 5.23542e-06, No Iterations 1
smoothSolver:  Solving for k, Initial residual = 0.00885669, Final residual = 0.000440832, No Iterations 4
ExecutionTime = 0.1 s  ClockTime = 5 s

Calculating grad(U).
Time = 82

smoothSolver:  Solving for Ux, Initial residual = 0.00384482, Final residual = 0.000335996, No Iterations 7
smoothSolver:  Solving for Uy, Initial residual = 0.552322, Final residual = 0.0375282, No Iterations 2
GAMG:  Solving for p, Initial residual = 0.0542674, Final residual = 0.00414006, No Iterations 2
time step continuity errors : sum local = 3.29966e-07, global = -3.53314e-19, cumulative = -1.35226e-16
smoothSolver:  Solving for omega, Initial residual = 1.8385e-05, Final residual = 5.16593e-06, No Iterations 1
smoothSolver:  Solving for k, Initial residual = 0.00833616, Final residual = 0.00047677, No Iterations 4
ExecutionTime = 0.1 s  ClockTime = 5 s

Calculating grad(U).
Time = 83

smoothSolver:  Solving for Ux, Initial residual = 0.0038357, Final residual = 0.000333639, No Iterations 7
smoothSolver:  Solving for Uy, Initial residual = 0.603077, Final residual = 0.0413085, No Iterations 2
GAMG:  Solving for p, Initial residual = 0.0463442, Final residual = 0.0022958, No Iterations 2
time step continuity errors : sum local = 1.98719e-07, global = -3.75786e-18, cumulative = -1.38984e-16
smoothSolver:  Solving for omega, Initial residual = 1.80777e-05, Final residual = 5.47975e-06, No Iterations 1
smoothSolver:  Solving for k, Initial residual = 0.00774348, Final residual = 0.000365578, No Iterations 4
ExecutionTime = 0.1 s  ClockTime = 5 s

Calculating grad(U).
Time = 84

smoothSolver:  Solving for Ux, Initial residual = 0.00379741, Final residual = 0.000329239, No Iterations 7
smoothSolver:  Solving for Uy, Initial residual = 0.527622, Final residual = 0.0360127, No Iterations 2
GAMG:  Solving for p, Initial residual = 0.0477759, Final residual = 0.00286265, No Iterations 2
time step continuity errors : sum local = 2.15891e-07, global = -4.02543e-18, cumulative = -1.43009e-16
smoothSolver:  Solving for omega, Initial residual = 1.88511e-05, Final residual = 5.4069e-06, No Iterations 1
smoothSolver:  Solving for k, Initial residual = 0.00725776, Final residual = 0.000338525, No Iterations 4
ExecutionTime = 0.1 s  ClockTime = 5 s

Calculating grad(U).
Time = 85

smoothSolver:  Solving for Ux, Initial residual = 0.0037733, Final residual = 0.000325947, No Iterations 7
smoothSolver:  Solving for Uy, Initial residual = 0.50947, Final residual = 0.0326682, No Iterations 2
GAMG:  Solving for p, Initial residual = 0.0470004, Final residual = 0.0039499, No Iterations 3
time step continuity errors : sum local = 2.82897e-07, global = -4.42518e-18, cumulative = -1.47434e-16
smoothSolver:  Solving for omega, Initial residual = 1.87783e-05, Final residual = 5.7307e-06, No Iterations 1
smoothSolver:  Solving for k, Initial residual = 0.00704155, Final residual = 0.000362939, No Iterations 4
ExecutionTime = 0.1 s  ClockTime = 5 s

Calculating grad(U).
Time = 86

smoothSolver:  Solving for Ux, Initial residual = 0.00375824, Final residual = 0.000323447, No Iterations 7
smoothSolver:  Solving for Uy, Initial residual = 0.524578, Final residual = 0.0316341, No Iterations 2
GAMG:  Solving for p, Initial residual = 0.0536008, Final residual = 0.00261159, No Iterations 2
time step continuity errors : sum local = 1.8577e-07, global = -1.84377e-18, cumulative = -1.49278e-16
smoothSolver:  Solving for omega, Initial residual = 1.88213e-05, Final residual = 5.69713e-06, No Iterations 1
smoothSolver:  Solving for k, Initial residual = 0.00653701, Final residual = 0.000343793, No Iterations 4
ExecutionTime = 0.1 s  ClockTime = 5 s

Calculating grad(U).
Time = 87

smoothSolver:  Solving for Ux, Initial residual = 0.00370983, Final residual = 0.000318676, No Iterations 7
smoothSolver:  Solving for Uy, Initial residual = 0.484138, Final residual = 0.0292593, No Iterations 2
GAMG:  Solving for p, Initial residual = 0.0469768, Final residual = 0.00251363, No Iterations 2
time step continuity errors : sum local = 1.81099e-07, global = -3.42819e-18, cumulative = -1.52706e-16
smoothSolver:  Solving for omega, Initial residual = 1.93001e-05, Final residual = 5.95817e-06, No Iterations 1
smoothSolver:  Solving for k, Initial residual = 0.00591656, Final residual = 0.000564938, No Iterations 3
ExecutionTime = 0.1 s  ClockTime = 5 s

Calculating grad(U).
Time = 88

smoothSolver:  Solving for Ux, Initial residual = 0.00367777, Final residual = 0.000314104, No Iterations 7
smoothSolver:  Solving for Uy, Initial residual = 0.503217, Final residual = 0.0295903, No Iterations 2
GAMG:  Solving for p, Initial residual = 0.0464339, Final residual = 0.00422835, No Iterations 3
time step continuity errors : sum local = 2.64975e-07, global = -3.24387e-18, cumulative = -1.5595e-16
smoothSolver:  Solving for omega, Initial residual = 1.91433e-05, Final residual = 5.89918e-06, No Iterations 1
smoothSolver:  Solving for k, Initial residual = 0.00560017, Final residual = 0.000283852, No Iterations 4
ExecutionTime = 0.11 s  ClockTime = 5 s

Calculating grad(U).
Time = 89

smoothSolver:  Solving for Ux, Initial residual = 0.0036606, Final residual = 0.000310512, No Iterations 7
smoothSolver:  Solving for Uy, Initial residual = 0.48779, Final residual = 0.0284559, No Iterations 2
GAMG:  Solving for p, Initial residual = 0.0492573, Final residual = 0.00190846, No Iterations 2
time step continuity errors : sum local = 1.25029e-07, global = -1.12132e-18, cumulative = -1.57072e-16
smoothSolver:  Solving for omega, Initial residual = 1.94772e-05, Final residual = 6.22569e-06, No Iterations 1
smoothSolver:  Solving for k, Initial residual = 0.0051698, Final residual = 0.000280855, No Iterations 4
ExecutionTime = 0.11 s  ClockTime = 5 s

Calculating grad(U).
Time = 90

smoothSolver:  Solving for Ux, Initial residual = 0.00362641, Final residual = 0.000306045, No Iterations 7
smoothSolver:  Solving for Uy, Initial residual = 0.511597, Final residual = 0.0322298, No Iterations 2
GAMG:  Solving for p, Initial residual = 0.0379083, Final residual = 0.00241218, No Iterations 2
time step continuity errors : sum local = 1.58557e-07, global = -2.53475e-19, cumulative = -1.57325e-16
smoothSolver:  Solving for omega, Initial residual = 1.97103e-05, Final residual = 6.15355e-06, No Iterations 1
smoothSolver:  Solving for k, Initial residual = 0.00484035, Final residual = 0.00027411, No Iterations 4
ExecutionTime = 0.11 s  ClockTime = 5 s

Calculating grad(U).
Time = 91

smoothSolver:  Solving for Ux, Initial residual = 0.00359166, Final residual = 0.000302089, No Iterations 7
smoothSolver:  Solving for Uy, Initial residual = 0.440259, Final residual = 0.0243609, No Iterations 2
GAMG:  Solving for p, Initial residual = 0.0376066, Final residual = 0.00329038, No Iterations 3
time step continuity errors : sum local = 1.92148e-07, global = -5.23219e-19, cumulative = -1.57848e-16
smoothSolver:  Solving for omega, Initial residual = 1.97741e-05, Final residual = 6.504e-06, No Iterations 1
smoothSolver:  Solving for k, Initial residual = 0.00434402, Final residual = 0.00022203, No Iterations 4
ExecutionTime = 0.11 s  ClockTime = 5 s

Calculating grad(U).
Time = 92

smoothSolver:  Solving for Ux, Initial residual = 0.00355351, Final residual = 0.000297132, No Iterations 7
smoothSolver:  Solving for Uy, Initial residual = 0.419064, Final residual = 0.0233281, No Iterations 2
GAMG:  Solving for p, Initial residual = 0.0405261, Final residual = 0.00200244, No Iterations 2
time step continuity errors : sum local = 1.1002e-07, global = -2.04581e-18, cumulative = -1.59894e-16
smoothSolver:  Solving for omega, Initial residual = 2.01018e-05, Final residual = 6.47943e-06, No Iterations 1
smoothSolver:  Solving for k, Initial residual = 0.0040955, Final residual = 0.000211526, No Iterations 4
ExecutionTime = 0.11 s  ClockTime = 5 s

Calculating grad(U).
Time = 93

smoothSolver:  Solving for Ux, Initial residual = 0.00350227, Final residual = 0.000291894, No Iterations 7
smoothSolver:  Solving for Uy, Initial residual = 0.400757, Final residual = 0.0243012, No Iterations 2
GAMG:  Solving for p, Initial residual = 0.0372703, Final residual = 0.00283896, No Iterations 2
time step continuity errors : sum local = 1.66494e-07, global = -4.14515e-18, cumulative = -1.64039e-16
smoothSolver:  Solving for omega, Initial residual = 2.03638e-05, Final residual = 6.7585e-06, No Iterations 1
smoothSolver:  Solving for k, Initial residual = 0.00376105, Final residual = 0.000189861, No Iterations 4
ExecutionTime = 0.11 s  ClockTime = 5 s

Calculating grad(U).
Time = 94

smoothSolver:  Solving for Ux, Initial residual = 0.00344699, Final residual = 0.000286806, No Iterations 7
smoothSolver:  Solving for Uy, Initial residual = 0.350801, Final residual = 0.0224308, No Iterations 2
GAMG:  Solving for p, Initial residual = 0.031218, Final residual = 0.00216345, No Iterations 4
time step continuity errors : sum local = 1.14001e-07, global = -2.9163e-19, cumulative = -1.64331e-16
smoothSolver:  Solving for omega, Initial residual = 2.03758e-05, Final residual = 6.68158e-06, No Iterations 1
smoothSolver:  Solving for k, Initial residual = 0.00343488, Final residual = 0.000173127, No Iterations 4
ExecutionTime = 0.11 s  ClockTime = 5 s

Calculating grad(U).
Time = 95

smoothSolver:  Solving for Ux, Initial residual = 0.00337713, Final residual = 0.000280929, No Iterations 7
smoothSolver:  Solving for Uy, Initial residual = 0.372718, Final residual = 0.0181848, No Iterations 2
GAMG:  Solving for p, Initial residual = 0.0318897, Final residual = 0.00160061, No Iterations 2
time step continuity errors : sum local = 9.2618e-08, global = -4.6879e-18, cumulative = -1.69019e-16
smoothSolver:  Solving for omega, Initial residual = 2.04724e-05, Final residual = 6.91957e-06, No Iterations 1
smoothSolver:  Solving for k, Initial residual = 0.00317861, Final residual = 0.000164152, No Iterations 4
ExecutionTime = 0.11 s  ClockTime = 5 s

Calculating grad(U).
Time = 96

smoothSolver:  Solving for Ux, Initial residual = 0.00329547, Final residual = 0.000274376, No Iterations 7
smoothSolver:  Solving for Uy, Initial residual = 0.389788, Final residual = 0.020117, No Iterations 2
GAMG:  Solving for p, Initial residual = 0.0335302, Final residual = 0.00247257, No Iterations 2
time step continuity errors : sum local = 1.37365e-07, global = -3.88582e-18, cumulative = -1.72905e-16
smoothSolver:  Solving for omega, Initial residual = 2.04346e-05, Final residual = 6.77738e-06, No Iterations 1
smoothSolver:  Solving for k, Initial residual = 0.00284334, Final residual = 0.00014799, No Iterations 4
ExecutionTime = 0.11 s  ClockTime = 6 s

Calculating grad(U).
Time = 97

smoothSolver:  Solving for Ux, Initial residual = 0.0032167, Final residual = 0.000267693, No Iterations 7
smoothSolver:  Solving for Uy, Initial residual = 0.357763, Final residual = 0.0166939, No Iterations 2
GAMG:  Solving for p, Initial residual = 0.0289014, Final residual = 0.00267178, No Iterations 3
time step continuity errors : sum local = 1.37629e-07, global = -4.33161e-18, cumulative = -1.77236e-16
smoothSolver:  Solving for omega, Initial residual = 2.05265e-05, Final residual = 7.01338e-06, No Iterations 1
smoothSolver:  Solving for k, Initial residual = 0.00253871, Final residual = 0.000122001, No Iterations 4
ExecutionTime = 0.12 s  ClockTime = 6 s

Calculating grad(U).
Time = 98

smoothSolver:  Solving for Ux, Initial residual = 0.00314428, Final residual = 0.000260804, No Iterations 7
smoothSolver:  Solving for Uy, Initial residual = 0.406026, Final residual = 0.0182569, No Iterations 2
GAMG:  Solving for p, Initial residual = 0.0269039, Final residual = 0.0013676, No Iterations 2
time step continuity errors : sum local = 7.13191e-08, global = -3.15633e-18, cumulative = -1.80393e-16
smoothSolver:  Solving for omega, Initial residual = 2.03941e-05, Final residual = 6.83158e-06, No Iterations 1
smoothSolver:  Solving for k, Initial residual = 0.00231173, Final residual = 0.000228841, No Iterations 3
ExecutionTime = 0.12 s  ClockTime = 6 s

Calculating grad(U).
Time = 99

smoothSolver:  Solving for Ux, Initial residual = 0.00307278, Final residual = 0.000253986, No Iterations 7
smoothSolver:  Solving for Uy, Initial residual = 0.35504, Final residual = 0.0181218, No Iterations 2
GAMG:  Solving for p, Initial residual = 0.0255128, Final residual = 0.00212002, No Iterations 2
time step continuity errors : sum local = 1.17369e-07, global = -4.40001e-18, cumulative = -1.84793e-16
smoothSolver:  Solving for omega, Initial residual = 2.0361e-05, Final residual = 6.97908e-06, No Iterations 1
smoothSolver:  Solving for k, Initial residual = 0.00209284, Final residual = 0.00010978, No Iterations 4
ExecutionTime = 0.12 s  ClockTime = 6 s

Calculating grad(U).
Time = 100

smoothSolver:  Solving for Ux, Initial residual = 0.00298861, Final residual = 0.000247235, No Iterations 7
smoothSolver:  Solving for Uy, Initial residual = 0.379334, Final residual = 0.0192913, No Iterations 2
GAMG:  Solving for p, Initial residual = 0.0259949, Final residual = 0.00233951, No Iterations 3
time step continuity errors : sum local = 1.17394e-07, global = -1.0558e-18, cumulative = -1.85848e-16
smoothSolver:  Solving for omega, Initial residual = 2.00576e-05, Final residual = 6.79119e-06, No Iterations 1
smoothSolver:  Solving for k, Initial residual = 0.00181925, Final residual = 9.61075e-05, No Iterations 4
ExecutionTime = 0.12 s  ClockTime = 6 s

Calculating grad(U).
Time = 101

smoothSolver:  Solving for Ux, Initial residual = 0.00289603, Final residual = 0.000239916, No Iterations 7
smoothSolver:  Solving for Uy, Initial residual = 0.436773, Final residual = 0.0195893, No Iterations 2
GAMG:  Solving for p, Initial residual = 0.0267018, Final residual = 0.00146178, No Iterations 2
time step continuity errors : sum local = 8.10909e-08, global = -2.54121e-18, cumulative = -1.8839e-16
smoothSolver:  Solving for omega, Initial residual = 1.9999e-05, Final residual = 6.96205e-06, No Iterations 1
smoothSolver:  Solving for k, Initial residual = 0.00170965, Final residual = 0.000148428, No Iterations 3
ExecutionTime = 0.12 s  ClockTime = 6 s

Calculating grad(U).
Time = 102

smoothSolver:  Solving for Ux, Initial residual = 0.00279608, Final residual = 0.000232258, No Iterations 7
smoothSolver:  Solving for Uy, Initial residual = 0.448689, Final residual = 0.0215362, No Iterations 2
GAMG:  Solving for p, Initial residual = 0.0246922, Final residual = 0.00206223, No Iterations 2
time step continuity errors : sum local = 1.12994e-07, global = -4.24501e-18, cumulative = -1.92635e-16
smoothSolver:  Solving for omega, Initial residual = 1.97045e-05, Final residual = 6.70635e-06, No Iterations 1
smoothSolver:  Solving for k, Initial residual = 0.00153712, Final residual = 0.00014593, No Iterations 3
ExecutionTime = 0.12 s  ClockTime = 6 s

Calculating grad(U).
Time = 103

smoothSolver:  Solving for Ux, Initial residual = 0.00270681, Final residual = 0.000224797, No Iterations 7
smoothSolver:  Solving for Uy, Initial residual = 0.418185, Final residual = 0.0184032, No Iterations 2
GAMG:  Solving for p, Initial residual = 0.0240337, Final residual = 0.00147462, No Iterations 2
time step continuity errors : sum local = 8.41806e-08, global = -2.34537e-18, cumulative = -1.9498e-16
smoothSolver:  Solving for omega, Initial residual = 1.94864e-05, Final residual = 6.83894e-06, No Iterations 1
smoothSolver:  Solving for k, Initial residual = 0.0014138, Final residual = 0.000124751, No Iterations 3
ExecutionTime = 0.12 s  ClockTime = 6 s

Calculating grad(U).
Time = 104

smoothSolver:  Solving for Ux, Initial residual = 0.00261731, Final residual = 0.000217429, No Iterations 7
smoothSolver:  Solving for Uy, Initial residual = 0.414303, Final residual = 0.0182609, No Iterations 2
GAMG:  Solving for p, Initial residual = 0.0250865, Final residual = 0.00211617, No Iterations 2
time step continuity errors : sum local = 1.12341e-07, global = -3.90213e-18, cumulative = -1.98882e-16
smoothSolver:  Solving for omega, Initial residual = 1.9155e-05, Final residual = 6.5856e-06, No Iterations 1
smoothSolver:  Solving for k, Initial residual = 0.00142037, Final residual = 0.000111468, No Iterations 3
ExecutionTime = 0.12 s  ClockTime = 6 s

Calculating grad(U).
Time = 105

smoothSolver:  Solving for Ux, Initial residual = 0.00252555, Final residual = 0.000209977, No Iterations 7
smoothSolver:  Solving for Uy, Initial residual = 0.448323, Final residual = 0.0186305, No Iterations 2
GAMG:  Solving for p, Initial residual = 0.0265257, Final residual = 0.00164796, No Iterations 2
time step continuity errors : sum local = 9.03467e-08, global = -2.40874e-18, cumulative = -2.01291e-16
smoothSolver:  Solving for omega, Initial residual = 1.8873e-05, Final residual = 6.66285e-06, No Iterations 1
smoothSolver:  Solving for k, Initial residual = 0.00135063, Final residual = 0.000133955, No Iterations 3
ExecutionTime = 0.13 s  ClockTime = 6 s

Calculating grad(U).
Time = 106

smoothSolver:  Solving for Ux, Initial residual = 0.00243384, Final residual = 0.000202512, No Iterations 7
smoothSolver:  Solving for Uy, Initial residual = 0.484962, Final residual = 0.0207676, No Iterations 2
GAMG:  Solving for p, Initial residual = 0.0252338, Final residual = 0.00189238, No Iterations 2
time step continuity errors : sum local = 1.00079e-07, global = -4.54681e-18, cumulative = -2.05838e-16
smoothSolver:  Solving for omega, Initial residual = 1.84379e-05, Final residual = 6.41098e-06, No Iterations 1
smoothSolver:  Solving for k, Initial residual = 0.0012681, Final residual = 0.000117967, No Iterations 3
ExecutionTime = 0.13 s  ClockTime = 6 s

Calculating grad(U).
Time = 107

smoothSolver:  Solving for Ux, Initial residual = 0.00234536, Final residual = 0.000195155, No Iterations 7
smoothSolver:  Solving for Uy, Initial residual = 0.495459, Final residual = 0.0213757, No Iterations 2
GAMG:  Solving for p, Initial residual = 0.0260659, Final residual = 0.00176423, No Iterations 2
time step continuity errors : sum local = 9.30495e-08, global = -1.09472e-18, cumulative = -2.06932e-16
smoothSolver:  Solving for omega, Initial residual = 1.81179e-05, Final residual = 6.43553e-06, No Iterations 1
smoothSolver:  Solving for k, Initial residual = 0.00123456, Final residual = 0.000111888, No Iterations 3
[...]
GAMG:  Solving for p, Initial residual = 0.00122517, Final residual = 4.71158e-05, No Iterations 2
time step continuity errors : sum local = 2.81939e-10, global = -9.24188e-19, cumulative = -1.39906e-15
smoothSolver:  Solving for omega, Initial residual = 5.58776e-06, Final residual = 5.58776e-06, No Iterations 0
smoothSolver:  Solving for k, Initial residual = 2.31638e-05, Final residual = 5.87501e-06, No Iterations 2
ExecutionTime = 0.63 s  ClockTime = 6 s

Calculating grad(U).
Time = 562

smoothSolver:  Solving for Ux, Initial residual = 2.4776e-05, Final residual = 9.37109e-06, No Iterations 3
smoothSolver:  Solving for Uy, Initial residual = 0.016035, Final residual = 0.000641827, No Iterations 2
GAMG:  Solving for p, Initial residual = 0.00134717, Final residual = 0.000107432, No Iterations 2
time step continuity errors : sum local = 6.0667e-10, global = 2.35538e-19, cumulative = -1.39883e-15
smoothSolver:  Solving for omega, Initial residual = 5.56498e-06, Final residual = 5.56498e-06, No Iterations 0
smoothSolver:  Solving for k, Initial residual = 2.33832e-05, Final residual = 5.68511e-06, No Iterations 2
ExecutionTime = 0.64 s  ClockTime = 6 s

Calculating grad(U).
Time = 563

smoothSolver:  Solving for Ux, Initial residual = 2.4569e-05, Final residual = 9.28634e-06, No Iterations 3
smoothSolver:  Solving for Uy, Initial residual = 0.0155248, Final residual = 0.000565864, No Iterations 2
GAMG:  Solving for p, Initial residual = 0.00110984, Final residual = 4.04268e-05, No Iterations 2
time step continuity errors : sum local = 2.56896e-10, global = -2.99437e-18, cumulative = -1.40182e-15
smoothSolver:  Solving for omega, Initial residual = 5.54229e-06, Final residual = 5.54229e-06, No Iterations 0
smoothSolver:  Solving for k, Initial residual = 2.34514e-05, Final residual = 5.82509e-06, No Iterations 2
ExecutionTime = 0.64 s  ClockTime = 6 s

Calculating grad(U).
Time = 564

smoothSolver:  Solving for Ux, Initial residual = 2.43623e-05, Final residual = 9.20187e-06, No Iterations 3
smoothSolver:  Solving for Uy, Initial residual = 0.0145846, Final residual = 0.000566031, No Iterations 2
GAMG:  Solving for p, Initial residual = 0.00124401, Final residual = 0.000100322, No Iterations 2
time step continuity errors : sum local = 5.62271e-10, global = -2.56827e-18, cumulative = -1.40439e-15
smoothSolver:  Solving for omega, Initial residual = 5.5197e-06, Final residual = 5.5197e-06, No Iterations 0
smoothSolver:  Solving for k, Initial residual = 2.35796e-05, Final residual = 5.54711e-06, No Iterations 2
ExecutionTime = 0.64 s  ClockTime = 6 s

Calculating grad(U).
Time = 565

smoothSolver:  Solving for Ux, Initial residual = 2.41549e-05, Final residual = 9.11761e-06, No Iterations 3
smoothSolver:  Solving for Uy, Initial residual = 0.0155521, Final residual = 0.000604646, No Iterations 2
GAMG:  Solving for p, Initial residual = 0.00114005, Final residual = 4.94673e-05, No Iterations 2
time step continuity errors : sum local = 3.09413e-10, global = -3.28446e-18, cumulative = -1.40768e-15
smoothSolver:  Solving for omega, Initial residual = 5.49724e-06, Final residual = 5.49724e-06, No Iterations 0
smoothSolver:  Solving for k, Initial residual = 2.36637e-05, Final residual = 5.95283e-06, No Iterations 2
ExecutionTime = 0.64 s  ClockTime = 6 s

Calculating grad(U).
Time = 566

smoothSolver:  Solving for Ux, Initial residual = 2.39486e-05, Final residual = 9.03367e-06, No Iterations 3
smoothSolver:  Solving for Uy, Initial residual = 0.0148452, Final residual = 0.00054674, No Iterations 2
GAMG:  Solving for p, Initial residual = 0.00121769, Final residual = 8.60131e-05, No Iterations 3
time step continuity errors : sum local = 4.76931e-10, global = -3.31217e-18, cumulative = -1.41099e-15
smoothSolver:  Solving for omega, Initial residual = 5.47491e-06, Final residual = 5.47491e-06, No Iterations 0
smoothSolver:  Solving for k, Initial residual = 2.38371e-05, Final residual = 5.73727e-06, No Iterations 2
ExecutionTime = 0.64 s  ClockTime = 6 s

Calculating grad(U).
Time = 567

smoothSolver:  Solving for Ux, Initial residual = 2.37413e-05, Final residual = 8.94988e-06, No Iterations 3
smoothSolver:  Solving for Uy, Initial residual = 0.0145184, Final residual = 0.000637013, No Iterations 2
GAMG:  Solving for p, Initial residual = 0.00111206, Final residual = 6.29326e-05, No Iterations 2
time step continuity errors : sum local = 3.90265e-10, global = -3.5395e-18, cumulative = -1.41453e-15
smoothSolver:  Solving for omega, Initial residual = 5.45268e-06, Final residual = 5.45268e-06, No Iterations 0
smoothSolver:  Solving for k, Initial residual = 2.38013e-05, Final residual = 5.85767e-06, No Iterations 2
ExecutionTime = 0.64 s  ClockTime = 6 s

Calculating grad(U).
Time = 568

smoothSolver:  Solving for Ux, Initial residual = 2.35356e-05, Final residual = 8.86676e-06, No Iterations 3
smoothSolver:  Solving for Uy, Initial residual = 0.0138638, Final residual = 0.000523653, No Iterations 2
GAMG:  Solving for p, Initial residual = 0.00116489, Final residual = 8.15288e-05, No Iterations 3
time step continuity errors : sum local = 4.53547e-10, global = -1.7348e-18, cumulative = -1.41626e-15
smoothSolver:  Solving for omega, Initial residual = 5.43113e-06, Final residual = 5.43113e-06, No Iterations 0
smoothSolver:  Solving for k, Initial residual = 2.37741e-05, Final residual = 5.58191e-06, No Iterations 2
ExecutionTime = 0.64 s  ClockTime = 6 s

Calculating grad(U).
Time = 569

smoothSolver:  Solving for Ux, Initial residual = 2.33291e-05, Final residual = 8.78373e-06, No Iterations 3
smoothSolver:  Solving for Uy, Initial residual = 0.0143933, Final residual = 0.000662948, No Iterations 2
GAMG:  Solving for p, Initial residual = 0.00118576, Final residual = 6.08487e-05, No Iterations 2
time step continuity errors : sum local = 3.7969e-10, global = -3.39529e-18, cumulative = -1.41966e-15
smoothSolver:  Solving for omega, Initial residual = 5.41368e-06, Final residual = 5.41368e-06, No Iterations 0
smoothSolver:  Solving for k, Initial residual = 2.36826e-05, Final residual = 5.7399e-06, No Iterations 2
ExecutionTime = 0.64 s  ClockTime = 6 s

Calculating grad(U).
Time = 570

smoothSolver:  Solving for Ux, Initial residual = 2.31243e-05, Final residual = 8.7014e-06, No Iterations 3
smoothSolver:  Solving for Uy, Initial residual = 0.0137098, Final residual = 0.000549739, No Iterations 2
GAMG:  Solving for p, Initial residual = 0.00110233, Final residual = 0.000106787, No Iterations 2
time step continuity errors : sum local = 6.02287e-10, global = -2.32663e-18, cumulative = -1.42198e-15
smoothSolver:  Solving for omega, Initial residual = 5.39632e-06, Final residual = 5.39632e-06, No Iterations 0
smoothSolver:  Solving for k, Initial residual = 2.47104e-05, Final residual = 5.85887e-06, No Iterations 2
ExecutionTime = 0.64 s  ClockTime = 6 s

Calculating grad(U).
Time = 571

smoothSolver:  Solving for Ux, Initial residual = 2.29189e-05, Final residual = 8.61939e-06, No Iterations 3
smoothSolver:  Solving for Uy, Initial residual = 0.0153312, Final residual = 0.000725118, No Iterations 2
GAMG:  Solving for p, Initial residual = 0.00116736, Final residual = 7.10405e-05, No Iterations 2
time step continuity errors : sum local = 4.37931e-10, global = -2.81666e-18, cumulative = -1.4248e-15
smoothSolver:  Solving for omega, Initial residual = 5.37911e-06, Final residual = 5.37911e-06, No Iterations 0
smoothSolver:  Solving for k, Initial residual = 2.35654e-05, Final residual = 5.75705e-06, No Iterations 2
ExecutionTime = 0.65 s  ClockTime = 6 s

Calculating grad(U).
Time = 572

smoothSolver:  Solving for Ux, Initial residual = 2.27154e-05, Final residual = 8.538e-06, No Iterations 3
smoothSolver:  Solving for Uy, Initial residual = 0.0132783, Final residual = 0.000535613, No Iterations 2
GAMG:  Solving for p, Initial residual = 0.00118804, Final residual = 0.00010622, No Iterations 2
time step continuity errors : sum local = 6.00636e-10, global = -6.86905e-19, cumulative = -1.42549e-15
smoothSolver:  Solving for omega, Initial residual = 5.36482e-06, Final residual = 5.36482e-06, No Iterations 0
smoothSolver:  Solving for k, Initial residual = 2.37016e-05, Final residual = 5.52208e-06, No Iterations 2
ExecutionTime = 0.65 s  ClockTime = 6 s

Calculating grad(U).
Time = 573

smoothSolver:  Solving for Ux, Initial residual = 2.25111e-05, Final residual = 8.45695e-06, No Iterations 3
smoothSolver:  Solving for Uy, Initial residual = 0.0147468, Final residual = 0.000765229, No Iterations 2
GAMG:  Solving for p, Initial residual = 0.00123113, Final residual = 5.84964e-05, No Iterations 2
time step continuity errors : sum local = 3.49718e-10, global = -2.52324e-18, cumulative = -1.42801e-15
smoothSolver:  Solving for omega, Initial residual = 5.35218e-06, Final residual = 5.35218e-06, No Iterations 0
smoothSolver:  Solving for k, Initial residual = 2.37102e-05, Final residual = 5.83216e-06, No Iterations 2
ExecutionTime = 0.65 s  ClockTime = 6 s

Calculating grad(U).
Time = 574

smoothSolver:  Solving for Ux, Initial residual = 2.23086e-05, Final residual = 8.37639e-06, No Iterations 3
smoothSolver:  Solving for Uy, Initial residual = 0.0133891, Final residual = 0.000577901, No Iterations 2
GAMG:  Solving for p, Initial residual = 0.00108189, Final residual = 0.000100042, No Iterations 2
time step continuity errors : sum local = 5.5675e-10, global = -3.88547e-19, cumulative = -1.4284e-15
smoothSolver:  Solving for omega, Initial residual = 5.33965e-06, Final residual = 5.33965e-06, No Iterations 0
smoothSolver:  Solving for k, Initial residual = 2.41545e-05, Final residual = 5.62771e-06, No Iterations 2
ExecutionTime = 0.65 s  ClockTime = 6 s

Calculating grad(U).
Time = 575

smoothSolver:  Solving for Ux, Initial residual = 2.2106e-05, Final residual = 8.29642e-06, No Iterations 3
smoothSolver:  Solving for Uy, Initial residual = 0.0148753, Final residual = 0.000780177, No Iterations 2
GAMG:  Solving for p, Initial residual = 0.001156, Final residual = 6.7714e-05, No Iterations 2
time step continuity errors : sum local = 4.03977e-10, global = -4.03446e-18, cumulative = -1.43243e-15
smoothSolver:  Solving for omega, Initial residual = 5.32721e-06, Final residual = 5.32721e-06, No Iterations 0
smoothSolver:  Solving for k, Initial residual = 2.31554e-05, Final residual = 5.59107e-06, No Iterations 2
ExecutionTime = 0.65 s  ClockTime = 6 s

Calculating grad(U).
Time = 576

smoothSolver:  Solving for Ux, Initial residual = 2.19053e-05, Final residual = 8.2171e-06, No Iterations 3
smoothSolver:  Solving for Uy, Initial residual = 0.0121369, Final residual = 0.000542709, No Iterations 2
GAMG:  Solving for p, Initial residual = 0.00113155, Final residual = 9.63793e-05, No Iterations 2
time step continuity errors : sum local = 5.42728e-10, global = -1.10999e-19, cumulative = -1.43255e-15
smoothSolver:  Solving for omega, Initial residual = 5.3149e-06, Final residual = 5.3149e-06, No Iterations 0
smoothSolver:  Solving for k, Initial residual = 2.32778e-05, Final residual = 5.5551e-06, No Iterations 2
ExecutionTime = 0.65 s  ClockTime = 6 s

Calculating grad(U).
Time = 577

smoothSolver:  Solving for Ux, Initial residual = 2.17043e-05, Final residual = 8.13829e-06, No Iterations 3
smoothSolver:  Solving for Uy, Initial residual = 0.0142154, Final residual = 0.000778269, No Iterations 2
GAMG:  Solving for p, Initial residual = 0.00114272, Final residual = 5.89288e-05, No Iterations 2
time step continuity errors : sum local = 3.4621e-10, global = -2.04798e-18, cumulative = -1.43459e-15
smoothSolver:  Solving for omega, Initial residual = 5.30262e-06, Final residual = 5.30262e-06, No Iterations 0
smoothSolver:  Solving for k, Initial residual = 2.25536e-05, Final residual = 5.33639e-06, No Iterations 2
ExecutionTime = 0.65 s  ClockTime = 6 s

Calculating grad(U).
Time = 578

smoothSolver:  Solving for Ux, Initial residual = 2.15051e-05, Final residual = 8.06007e-06, No Iterations 3
smoothSolver:  Solving for Uy, Initial residual = 0.0122453, Final residual = 0.00056413, No Iterations 2
GAMG:  Solving for p, Initial residual = 0.00104746, Final residual = 8.8163e-05, No Iterations 2
time step continuity errors : sum local = 4.86371e-10, global = -2.7599e-18, cumulative = -1.43735e-15
smoothSolver:  Solving for omega, Initial residual = 5.29047e-06, Final residual = 5.29047e-06, No Iterations 0
smoothSolver:  Solving for k, Initial residual = 2.35089e-05, Final residual = 5.55349e-06, No Iterations 2
ExecutionTime = 0.65 s  ClockTime = 6 s

Calculating grad(U).
Time = 579

smoothSolver:  Solving for Ux, Initial residual = 2.13058e-05, Final residual = 7.98238e-06, No Iterations 3
smoothSolver:  Solving for Uy, Initial residual = 0.0142838, Final residual = 0.000797108, No Iterations 2
GAMG:  Solving for p, Initial residual = 0.00114363, Final residual = 5.73072e-05, No Iterations 2
time step continuity errors : sum local = 3.27157e-10, global = -3.0812e-18, cumulative = -1.44043e-15
smoothSolver:  Solving for omega, Initial residual = 5.27839e-06, Final residual = 5.27839e-06, No Iterations 0
smoothSolver:  Solving for k, Initial residual = 2.21309e-05, Final residual = 5.30378e-06, No Iterations 2
ExecutionTime = 0.65 s  ClockTime = 6 s

Calculating grad(U).
Time = 580

smoothSolver:  Solving for Ux, Initial residual = 2.11086e-05, Final residual = 7.90544e-06, No Iterations 3
smoothSolver:  Solving for Uy, Initial residual = 0.0114045, Final residual = 0.000534408, No Iterations 2
GAMG:  Solving for p, Initial residual = 0.00108322, Final residual = 8.69447e-05, No Iterations 2
time step continuity errors : sum local = 4.66455e-10, global = -1.36839e-18, cumulative = -1.4418e-15
smoothSolver:  Solving for omega, Initial residual = 5.26644e-06, Final residual = 5.26644e-06, No Iterations 0
smoothSolver:  Solving for k, Initial residual = 2.21908e-05, Final residual = 5.21653e-06, No Iterations 2
ExecutionTime = 0.66 s  ClockTime = 6 s

Calculating grad(U).
Time = 581

smoothSolver:  Solving for Ux, Initial residual = 2.09112e-05, Final residual = 7.82907e-06, No Iterations 3
smoothSolver:  Solving for Uy, Initial residual = 0.0135386, Final residual = 0.000796654, No Iterations 2
GAMG:  Solving for p, Initial residual = 0.00111359, Final residual = 5.75587e-05, No Iterations 2
time step continuity errors : sum local = 3.1878e-10, global = -3.74156e-18, cumulative = -1.44554e-15
smoothSolver:  Solving for omega, Initial residual = 5.25454e-06, Final residual = 5.25454e-06, No Iterations 0
smoothSolver:  Solving for k, Initial residual = 2.16059e-05, Final residual = 5.16174e-06, No Iterations 2
ExecutionTime = 0.66 s  ClockTime = 6 s

Calculating grad(U).
Time = 582

smoothSolver:  Solving for Ux, Initial residual = 2.07163e-05, Final residual = 7.75332e-06, No Iterations 3
smoothSolver:  Solving for Uy, Initial residual = 0.0115039, Final residual = 0.000542407, No Iterations 2
GAMG:  Solving for p, Initial residual = 0.000977159, Final residual = 9.07441e-05, No Iterations 2
time step continuity errors : sum local = 5.03118e-10, global = -3.15386e-18, cumulative = -1.4487e-15
smoothSolver:  Solving for omega, Initial residual = 5.24275e-06, Final residual = 5.24275e-06, No Iterations 0
smoothSolver:  Solving for k, Initial residual = 2.24112e-05, Final residual = 5.31982e-06, No Iterations 2
ExecutionTime = 0.66 s  ClockTime = 6 s

Calculating grad(U).
Time = 583

smoothSolver:  Solving for Ux, Initial residual = 2.05214e-05, Final residual = 7.67819e-06, No Iterations 3
smoothSolver:  Solving for Uy, Initial residual = 0.0139142, Final residual = 0.000788032, No Iterations 2
GAMG:  Solving for p, Initial residual = 0.00109061, Final residual = 6.23963e-05, No Iterations 2
time step continuity errors : sum local = 3.36047e-10, global = -2.39554e-19, cumulative = -1.44894e-15
smoothSolver:  Solving for omega, Initial residual = 5.23106e-06, Final residual = 5.23106e-06, No Iterations 0
smoothSolver:  Solving for k, Initial residual = 2.0943e-05, Final residual = 5.07747e-06, No Iterations 2
ExecutionTime = 0.66 s  ClockTime = 6 s

Calculating grad(U).
Time = 584

smoothSolver:  Solving for Ux, Initial residual = 2.0329e-05, Final residual = 7.60387e-06, No Iterations 3
smoothSolver:  Solving for Uy, Initial residual = 0.0109265, Final residual = 0.000519855, No Iterations 2
GAMG:  Solving for p, Initial residual = 0.000992752, Final residual = 9.45634e-05, No Iterations 2
time step continuity errors : sum local = 5.23818e-10, global = -4.28276e-19, cumulative = -1.44937e-15
smoothSolver:  Solving for omega, Initial residual = 5.21953e-06, Final residual = 5.21953e-06, No Iterations 0
smoothSolver:  Solving for k, Initial residual = 2.10213e-05, Final residual = 4.92571e-06, No Iterations 2
ExecutionTime = 0.66 s  ClockTime = 6 s

Calculating grad(U).
Time = 585

smoothSolver:  Solving for Ux, Initial residual = 2.01373e-05, Final residual = 7.53037e-06, No Iterations 3
smoothSolver:  Solving for Uy, Initial residual = 0.0133628, Final residual = 0.000778638, No Iterations 2
GAMG:  Solving for p, Initial residual = 0.00105422, Final residual = 5.67574e-05, No Iterations 2
time step continuity errors : sum local = 3.12862e-10, global = -3.77305e-18, cumulative = -1.45314e-15
smoothSolver:  Solving for omega, Initial residual = 5.208e-06, Final residual = 5.208e-06, No Iterations 0
smoothSolver:  Solving for k, Initial residual = 2.02969e-05, Final residual = 9.94665e-06, No Iterations 1
ExecutionTime = 0.66 s  ClockTime = 6 s

Calculating grad(U).
Time = 586

smoothSolver:  Solving for Ux, Initial residual = 1.99471e-05, Final residual = 7.46415e-06, No Iterations 3
smoothSolver:  Solving for Uy, Initial residual = 0.0107691, Final residual = 0.000551379, No Iterations 2
GAMG:  Solving for p, Initial residual = 0.00094699, Final residual = 6.25574e-05, No Iterations 4
time step continuity errors : sum local = 3.4283e-10, global = -2.24674e-18, cumulative = -1.45539e-15
smoothSolver:  Solving for omega, Initial residual = 5.198e-06, Final residual = 5.198e-06, No Iterations 0
smoothSolver:  Solving for k, Initial residual = 2.19276e-05, Final residual = 4.86121e-06, No Iterations 2
ExecutionTime = 0.66 s  ClockTime = 6 s

Calculating grad(U).
Time = 587

smoothSolver:  Solving for Ux, Initial residual = 1.97645e-05, Final residual = 7.39326e-06, No Iterations 3
smoothSolver:  Solving for Uy, Initial residual = 0.0139352, Final residual = 0.000773932, No Iterations 2
GAMG:  Solving for p, Initial residual = 0.00105601, Final residual = 7.46057e-05, No Iterations 2
time step continuity errors : sum local = 4.22863e-10, global = -3.61857e-18, cumulative = -1.459e-15
smoothSolver:  Solving for omega, Initial residual = 5.189e-06, Final residual = 5.189e-06, No Iterations 0
smoothSolver:  Solving for k, Initial residual = 2.04112e-05, Final residual = 9.74616e-06, No Iterations 1
ExecutionTime = 0.66 s  ClockTime = 6 s

Calculating grad(U).
Time = 588

smoothSolver:  Solving for Ux, Initial residual = 1.95831e-05, Final residual = 7.32927e-06, No Iterations 3
smoothSolver:  Solving for Uy, Initial residual = 0.00849457, Final residual = 0.000460313, No Iterations 2
GAMG:  Solving for p, Initial residual = 0.000919765, Final residual = 9.12737e-05, No Iterations 3
time step continuity errors : sum local = 4.89879e-10, global = -2.12588e-18, cumulative = -1.46113e-15
smoothSolver:  Solving for omega, Initial residual = 5.18345e-06, Final residual = 5.18345e-06, No Iterations 0
smoothSolver:  Solving for k, Initial residual = 2.02458e-05, Final residual = 4.46254e-06, No Iterations 2
ExecutionTime = 0.66 s  ClockTime = 6 s


SIMPLE solution converged in 588 iterations

--> FOAM Warning : 
    From function Foam::label Foam::sampledSets::classifyFields()
    in file sampledSet/sampledSets/sampledSetsGrouping.C at line 140
    Cannot find registered field matching R
Calculating grad(U).
End

