/*---------------------------------------------------------------------------*\
  =========                 |
  \\      /  F ield         | OpenFOAM: The Open Source CFD Toolbox
   \\    /   O peration     | Website:  https://openfoam.org
    \\  /    A nd           | Version:  7
     \\/     M anipulation  |
\*---------------------------------------------------------------------------*/
Build  : 7-3bcbaf946ae9
Exec   : simpleFoam
Date   : Jul 05 2022
Time   : 03:52:22
Host   : "Lubuntu"
PID    : 213827
I/O    : uncollated
Case   : /home/ensm_student/Documents/CFD/Rechnerubung/Week7/Parameterstudien_mit_RANS/code
nProcs : 1
sigFpe : Enabling floating point exception trapping (FOAM_SIGFPE).
fileModificationChecking : Monitoring run-time modified files using timeStampMaster (fileModificationSkew 10)
allowSystemOperations : Allowing user-supplied system call operations

// * * * * * * * * * * * * * * * * * * * * * * * * * * * * * * * * * * * * * //
Create time

Using #calcEntry at line 21 in file "/home/ensm_student/Documents/CFD/Rechnerubung/Week7/Parameterstudien_mit_RANS/code/system/controlDict.functions"
Using #codeStream with "/home/ensm_student/Documents/CFD/Rechnerubung/Week7/Parameterstudien_mit_RANS/code/dynamicCode/platforms/linux64GccDPInt32Opt/lib/libcodeStream_05240c540305fcdfb554bdd6c11a3f0e65f2eca9.so"
Using #calcEntry at line 27 in file "/home/ensm_student/Documents/CFD/Rechnerubung/Week7/Parameterstudien_mit_RANS/code/system/controlDict.functions"
Using #codeStream with "/home/ensm_student/Documents/CFD/Rechnerubung/Week7/Parameterstudien_mit_RANS/code/dynamicCode/platforms/linux64GccDPInt32Opt/lib/libcodeStream_8c6314a787acd8194b0cf8679b363212e627d5db.so"
Using #calcEntry at line 32 in file "/home/ensm_student/Documents/CFD/Rechnerubung/Week7/Parameterstudien_mit_RANS/code/system/controlDict.functions"
Using #codeStream with "/home/ensm_student/Documents/CFD/Rechnerubung/Week7/Parameterstudien_mit_RANS/code/dynamicCode/platforms/linux64GccDPInt32Opt/lib/libcodeStream_844c9c693dfc906dd46778e4cc636c418aa6a075.so"
Using #calcEntry at line 34 in file "/home/ensm_student/Documents/CFD/Rechnerubung/Week7/Parameterstudien_mit_RANS/code/system/controlDict.functions"
Using #codeStream with "/home/ensm_student/Documents/CFD/Rechnerubung/Week7/Parameterstudien_mit_RANS/code/dynamicCode/platforms/linux64GccDPInt32Opt/lib/libcodeStream_8b9df0e8700141fc89ea5daab014598dae76de38.so"
Using #calcEntry at line 22 in file "/home/ensm_student/Documents/CFD/Rechnerubung/Week7/Parameterstudien_mit_RANS/code/system/controlDict.functions"
Using #codeStream with "/home/ensm_student/Documents/CFD/Rechnerubung/Week7/Parameterstudien_mit_RANS/code/dynamicCode/platforms/linux64GccDPInt32Opt/lib/libcodeStream_a2718d9a98f1bed9604b8b2cd82fbcd72eec1389.so"
Using #calcEntry at line 22 in file "/home/ensm_student/Documents/CFD/Rechnerubung/Week7/Parameterstudien_mit_RANS/code/system/controlDict.functions"
Using #codeStream with "/home/ensm_student/Documents/CFD/Rechnerubung/Week7/Parameterstudien_mit_RANS/code/dynamicCode/platforms/linux64GccDPInt32Opt/lib/libcodeStream_0981a5b7e5937d00e66f41dcf9088dece1c43ba8.so"
Using #calcEntry at line 23 in file "/home/ensm_student/Documents/CFD/Rechnerubung/Week7/Parameterstudien_mit_RANS/code/system/controlDict.functions"
Using #calcEntry at line 23 in file "/home/ensm_student/Documents/CFD/Rechnerubung/Week7/Parameterstudien_mit_RANS/code/system/controlDict.functions"
Using #codeStream with "/home/ensm_student/Documents/CFD/Rechnerubung/Week7/Parameterstudien_mit_RANS/code/dynamicCode/platforms/linux64GccDPInt32Opt/lib/libcodeStream_f376b17e77ada6b6747096f8140271b335b4e4b4.so"
Create mesh for time = 0


SIMPLE: Convergence criteria found
        p: tolerance 0.01
        U: tolerance 0.01
        "(k|omega)": tolerance 0.001

Reading field p

Reading field U

Using #calcEntry at line 21 in file "/home/ensm_student/Documents/CFD/Rechnerubung/Week7/Parameterstudien_mit_RANS/code/0/U"
Using #calcEntry at line 27 in file "/home/ensm_student/Documents/CFD/Rechnerubung/Week7/Parameterstudien_mit_RANS/code/0/U"
Using #calcEntry at line 32 in file "/home/ensm_student/Documents/CFD/Rechnerubung/Week7/Parameterstudien_mit_RANS/code/0/U"
Using #calcEntry at line 34 in file "/home/ensm_student/Documents/CFD/Rechnerubung/Week7/Parameterstudien_mit_RANS/code/0/U"
Using #calcEntry at line 25 in file "/home/ensm_student/Documents/CFD/Rechnerubung/Week7/Parameterstudien_mit_RANS/code/0/U"
Using #codeStream with "/home/ensm_student/Documents/CFD/Rechnerubung/Week7/Parameterstudien_mit_RANS/code/dynamicCode/platforms/linux64GccDPInt32Opt/lib/libcodeStream_897c933fe71bae321ae1875d6c8d7b8d67709451.so"
Creating new library in "dynamicCode/_897c933fe71bae321ae1875d6c8d7b8d67709451/platforms/linux64GccDPInt32Opt/lib/libcodeStream_897c933fe71bae321ae1875d6c8d7b8d67709451.so"
Invoking "wmake -s libso /home/ensm_student/Documents/CFD/Rechnerubung/Week7/Parameterstudien_mit_RANS/code/dynamicCode/_897c933fe71bae321ae1875d6c8d7b8d67709451"
wmake libso /home/ensm_student/Documents/CFD/Rechnerubung/Week7/Parameterstudien_mit_RANS/code/dynamicCode/_897c933fe71bae321ae1875d6c8d7b8d67709451
    wmkdep: codeStreamTemplate.C
    Ctoo: codeStreamTemplate.C
    ld: /home/ensm_student/Documents/CFD/Rechnerubung/Week7/Parameterstudien_mit_RANS/code/dynamicCode/_897c933fe71bae321ae1875d6c8d7b8d67709451/../platforms/linux64GccDPInt32Opt/lib/libcodeStream_897c933fe71bae321ae1875d6c8d7b8d67709451.so
Using #calcEntry at line 25 in file "/home/ensm_student/Documents/CFD/Rechnerubung/Week7/Parameterstudien_mit_RANS/code/0/U"
Using #codeStream with "/home/ensm_student/Documents/CFD/Rechnerubung/Week7/Parameterstudien_mit_RANS/code/dynamicCode/platforms/linux64GccDPInt32Opt/lib/libcodeStream_ef8eff33f91d97a4555ad0ece22cfded1fd2b9c4.so"
Creating new library in "dynamicCode/_ef8eff33f91d97a4555ad0ece22cfded1fd2b9c4/platforms/linux64GccDPInt32Opt/lib/libcodeStream_ef8eff33f91d97a4555ad0ece22cfded1fd2b9c4.so"
Invoking "wmake -s libso /home/ensm_student/Documents/CFD/Rechnerubung/Week7/Parameterstudien_mit_RANS/code/dynamicCode/_ef8eff33f91d97a4555ad0ece22cfded1fd2b9c4"
wmake libso /home/ensm_student/Documents/CFD/Rechnerubung/Week7/Parameterstudien_mit_RANS/code/dynamicCode/_ef8eff33f91d97a4555ad0ece22cfded1fd2b9c4
    wmkdep: codeStreamTemplate.C
    Ctoo: codeStreamTemplate.C
    ld: /home/ensm_student/Documents/CFD/Rechnerubung/Week7/Parameterstudien_mit_RANS/code/dynamicCode/_ef8eff33f91d97a4555ad0ece22cfded1fd2b9c4/../platforms/linux64GccDPInt32Opt/lib/libcodeStream_ef8eff33f91d97a4555ad0ece22cfded1fd2b9c4.so
Reading/calculating face flux field phi

Selecting incompressible transport model Newtonian
Selecting turbulence model type RAS
Selecting RAS turbulence model kOmegaSST
Using #calcEntry at line 21 in file "/home/ensm_student/Documents/CFD/Rechnerubung/Week7/Parameterstudien_mit_RANS/code/0/nut"
Using #calcEntry at line 27 in file "/home/ensm_student/Documents/CFD/Rechnerubung/Week7/Parameterstudien_mit_RANS/code/0/nut"
Using #calcEntry at line 32 in file "/home/ensm_student/Documents/CFD/Rechnerubung/Week7/Parameterstudien_mit_RANS/code/0/nut"
Using #calcEntry at line 34 in file "/home/ensm_student/Documents/CFD/Rechnerubung/Week7/Parameterstudien_mit_RANS/code/0/nut"
Selecting patchDistMethod meshWave
Using #calcEntry at line 21 in file "/home/ensm_student/Documents/CFD/Rechnerubung/Week7/Parameterstudien_mit_RANS/code/0/k"
Using #calcEntry at line 27 in file "/home/ensm_student/Documents/CFD/Rechnerubung/Week7/Parameterstudien_mit_RANS/code/0/k"
Using #calcEntry at line 32 in file "/home/ensm_student/Documents/CFD/Rechnerubung/Week7/Parameterstudien_mit_RANS/code/0/k"
Using #calcEntry at line 34 in file "/home/ensm_student/Documents/CFD/Rechnerubung/Week7/Parameterstudien_mit_RANS/code/0/k"
Using #calcEntry at line 21 in file "/home/ensm_student/Documents/CFD/Rechnerubung/Week7/Parameterstudien_mit_RANS/code/0/omega"
Using #calcEntry at line 27 in file "/home/ensm_student/Documents/CFD/Rechnerubung/Week7/Parameterstudien_mit_RANS/code/0/omega"
Using #calcEntry at line 32 in file "/home/ensm_student/Documents/CFD/Rechnerubung/Week7/Parameterstudien_mit_RANS/code/0/omega"
Using #calcEntry at line 34 in file "/home/ensm_student/Documents/CFD/Rechnerubung/Week7/Parameterstudien_mit_RANS/code/0/omega"
RAS
{
    RASModel        kOmegaSST;
    turbulence      on;
    printCoeffs     on;
    alphaK1         0.85;
    alphaK2         1;
    alphaOmega1     0.5;
    alphaOmega2     0.856;
    gamma1          0.555556;
    gamma2          0.44;
    beta1           0.075;
    beta2           0.0828;
    betaStar        0.09;
    a1              0.31;
    b1              1;
    c1              10;
    F3              false;
}

No MRF models present

No finite volume options present

Starting time loop

--> FOAM Warning : 
    From function bool Foam::functionObjectList::read()
    in file db/functionObjects/functionObjectList/functionObjectList.C at line 682
    Reading "/home/ensm_student/Documents/CFD/Rechnerubung/Week7/Parameterstudien_mit_RANS/code/system/controlDict" from line 18 to line 17
    Entry mag_U_infty is not a dictionary
--> FOAM Warning : 
    From function bool Foam::functionObjectList::read()
    in file db/functionObjects/functionObjectList/functionObjectList.C at line 682
    Reading "/home/ensm_student/Documents/CFD/Rechnerubung/Week7/Parameterstudien_mit_RANS/code/system/controlDict" from line 18 to line 17
    Entry alpha_DEG is not a dictionary
--> FOAM Warning : 
    From function bool Foam::functionObjectList::read()
    in file db/functionObjects/functionObjectList/functionObjectList.C at line 682
    Reading "/home/ensm_student/Documents/CFD/Rechnerubung/Week7/Parameterstudien_mit_RANS/code/system/controlDict" from line 18 to line 17
    Entry alpha_RAD is not a dictionary
--> FOAM Warning : 
    From function bool Foam::functionObjectList::read()
    in file db/functionObjects/functionObjectList/functionObjectList.C at line 682
    Reading "/home/ensm_student/Documents/CFD/Rechnerubung/Week7/Parameterstudien_mit_RANS/code/system/controlDict" from line 18 to line 17
    Entry intensity is not a dictionary
--> FOAM Warning : 
    From function bool Foam::functionObjectList::read()
    in file db/functionObjects/functionObjectList/functionObjectList.C at line 682
    Reading "/home/ensm_student/Documents/CFD/Rechnerubung/Week7/Parameterstudien_mit_RANS/code/system/controlDict" from line 18 to line 17
    Entry k_inlet is not a dictionary
--> FOAM Warning : 
    From function bool Foam::functionObjectList::read()
    in file db/functionObjects/functionObjectList/functionObjectList.C at line 682
    Reading "/home/ensm_student/Documents/CFD/Rechnerubung/Week7/Parameterstudien_mit_RANS/code/system/controlDict" from line 18 to line 17
    Entry beta_1 is not a dictionary
--> FOAM Warning : 
    From function bool Foam::functionObjectList::read()
    in file db/functionObjects/functionObjectList/functionObjectList.C at line 682
    Reading "/home/ensm_student/Documents/CFD/Rechnerubung/Week7/Parameterstudien_mit_RANS/code/system/controlDict" from line 18 to line 17
    Entry nu is not a dictionary
--> FOAM Warning : 
    From function bool Foam::functionObjectList::read()
    in file db/functionObjects/functionObjectList/functionObjectList.C at line 682
    Reading "/home/ensm_student/Documents/CFD/Rechnerubung/Week7/Parameterstudien_mit_RANS/code/system/controlDict" from line 18 to line 17
    Entry del_y_1 is not a dictionary
--> FOAM Warning : 
    From function bool Foam::functionObjectList::read()
    in file db/functionObjects/functionObjectList/functionObjectList.C at line 682
    Reading "/home/ensm_student/Documents/CFD/Rechnerubung/Week7/Parameterstudien_mit_RANS/code/system/controlDict" from line 18 to line 17
    Entry omega is not a dictionary
--> FOAM Warning : 
    From function bool Foam::functionObjectList::read()
    in file db/functionObjects/functionObjectList/functionObjectList.C at line 682
    Reading "/home/ensm_student/Documents/CFD/Rechnerubung/Week7/Parameterstudien_mit_RANS/code/system/controlDict" from line 18 to line 17
    Entry nut is not a dictionary
--> FOAM Warning : 
    From function bool Foam::functionObjectList::read()
    in file db/functionObjects/functionObjectList/functionObjectList.C at line 682
    Reading "/home/ensm_student/Documents/CFD/Rechnerubung/Week7/Parameterstudien_mit_RANS/code/system/controlDict" from line 18 to line 17
    Entry x_ is not a dictionary
--> FOAM Warning : 
    From function bool Foam::functionObjectList::read()
    in file db/functionObjects/functionObjectList/functionObjectList.C at line 682
    Reading "/home/ensm_student/Documents/CFD/Rechnerubung/Week7/Parameterstudien_mit_RANS/code/system/controlDict" from line 18 to line 17
    Entry y_ is not a dictionary
--> FOAM Warning : 
    From function void Foam::timeControl::read(const Foam::dictionary&)
    in file db/functionObjects/timeControl/timeControl.C at line 89
    Reading "/home/ensm_student/Documents/CFD/Rechnerubung/Week7/Parameterstudien_mit_RANS/code/system/controlDict.functions.forceCoeffs_object" from line 28 to line 48
    Using deprecated 'outputControl'
    Please use 'writeControl' with 'writeInterval'
forces forceCoeffs_object:
    Not including porosity effects
forceCoeffs forceCoeffs_object:
    Not including porosity effects
--> FOAM Warning : 
    From function void Foam::timeControl::read(const Foam::dictionary&)
    in file db/functionObjects/timeControl/timeControl.C at line 89
    Reading "/home/ensm_student/Documents/CFD/Rechnerubung/Week7/Parameterstudien_mit_RANS/code/system/controlDict.functions.residuals" from line 19 to line 31
    Using deprecated 'outputControl'
    Please use 'writeControl' with 'writeInterval'
Time = 1

smoothSolver:  Solving for Ux, Initial residual = 1, Final residual = 0.0881092, No Iterations 30
smoothSolver:  Solving for Uy, Initial residual = 1, Final residual = 0.0881429, No Iterations 30
GAMG:  Solving for p, Initial residual = 1, Final residual = 0.00893733, No Iterations 14
time step continuity errors : sum local = 0.00021667, global = -5.84421e-05, cumulative = -5.84421e-05
smoothSolver:  Solving for omega, Initial residual = 0.0015536, Final residual = 0.000154023, No Iterations 3
bounding omega, min: -6.23182 max: 1873.49 average: 21.9198
smoothSolver:  Solving for k, Initial residual = 1, Final residual = 0.0491249, No Iterations 3
ExecutionTime = 0.11 s  ClockTime = 2 s

forceCoeffs forceCoeffs_object write:
    Cm    = -0.0679671
    Cd    = 1.05041
    Cl    = -0.243062
    Cl(f) = -0.189498
    Cl(r) = -0.0535641

Time = 2

smoothSolver:  Solving for Ux, Initial residual = 0.0140799, Final residual = 0.00125275, No Iterations 15
smoothSolver:  Solving for Uy, Initial residual = 0.112412, Final residual = 0.0107512, No Iterations 14
GAMG:  Solving for p, Initial residual = 0.112522, Final residual = 0.00109132, No Iterations 16
time step continuity errors : sum local = 0.00035031, global = -0.000146813, cumulative = -0.000205256
smoothSolver:  Solving for omega, Initial residual = 0.00356937, Final residual = 0.000274817, No Iterations 3
bounding omega, min: -0.388164 max: 5216.42 average: 31.4558
smoothSolver:  Solving for k, Initial residual = 0.241543, Final residual = 0.0150515, No Iterations 3
ExecutionTime = 0.14 s  ClockTime = 2 s

forceCoeffs forceCoeffs_object write:
    Cm    = -0.233105
    Cd    = 1.34258
    Cl    = -0.180562
    Cl(f) = -0.323386
    Cl(r) = 0.142824

Time = 3

smoothSolver:  Solving for Ux, Initial residual = 0.00953247, Final residual = 0.000927524, No Iterations 13
smoothSolver:  Solving for Uy, Initial residual = 0.0495255, Final residual = 0.00465146, No Iterations 11
GAMG:  Solving for p, Initial residual = 0.0646973, Final residual = 0.000514672, No Iterations 14
time step continuity errors : sum local = 0.000256627, global = -0.000111826, cumulative = -0.000317081
smoothSolver:  Solving for omega, Initial residual = 0.00502663, Final residual = 0.000249386, No Iterations 4
bounding omega, min: -46.8387 max: 19348.6 average: 60.6001
smoothSolver:  Solving for k, Initial residual = 0.0816369, Final residual = 0.00515172, No Iterations 3
ExecutionTime = 0.17 s  ClockTime = 2 s

forceCoeffs forceCoeffs_object write:
    Cm    = -0.258
    Cd    = 1.72246
    Cl    = -0.336674
    Cl(f) = -0.426336
    Cl(r) = 0.0896628

Time = 4

smoothSolver:  Solving for Ux, Initial residual = 0.00913435, Final residual = 0.000857165, No Iterations 12
smoothSolver:  Solving for Uy, Initial residual = 0.0291139, Final residual = 0.00255653, No Iterations 11
GAMG:  Solving for p, Initial residual = 0.0703583, Final residual = 0.000523003, No Iterations 16
time step continuity errors : sum local = 0.00016988, global = -5.7521e-05, cumulative = -0.000374602
smoothSolver:  Solving for omega, Initial residual = 0.00220428, Final residual = 0.000212636, No Iterations 3
smoothSolver:  Solving for k, Initial residual = 0.0313531, Final residual = 0.00221106, No Iterations 3
ExecutionTime = 0.19 s  ClockTime = 2 s

forceCoeffs forceCoeffs_object write:
    Cm    = -0.1877
    Cd    = 2.16138
    Cl    = -0.558956
    Cl(f) = -0.467178
    Cl(r) = -0.0917774

Time = 5

smoothSolver:  Solving for Ux, Initial residual = 0.00836604, Final residual = 0.000820275, No Iterations 11
smoothSolver:  Solving for Uy, Initial residual = 0.0210393, Final residual = 0.00185247, No Iterations 11
GAMG:  Solving for p, Initial residual = 0.0847589, Final residual = 0.000752488, No Iterations 14
time step continuity errors : sum local = 0.000189663, global = -6.38131e-05, cumulative = -0.000438415
smoothSolver:  Solving for omega, Initial residual = 0.00142512, Final residual = 0.000133621, No Iterations 3
bounding omega, min: -50.9245 max: 12726.7 average: 90.3121
smoothSolver:  Solving for k, Initial residual = 0.0110525, Final residual = 0.000720598, No Iterations 3
ExecutionTime = 0.22 s  ClockTime = 2 s

forceCoeffs forceCoeffs_object write:
    Cm    = -0.0319909
    Cd    = 2.33561
    Cl    = -0.799373
    Cl(f) = -0.431677
    Cl(r) = -0.367695

Time = 6

smoothSolver:  Solving for Ux, Initial residual = 0.00738996, Final residual = 0.000693054, No Iterations 11
smoothSolver:  Solving for Uy, Initial residual = 0.012652, Final residual = 0.0012202, No Iterations 11
GAMG:  Solving for p, Initial residual = 0.0651584, Final residual = 0.000520392, No Iterations 13
time step continuity errors : sum local = 0.000146456, global = 7.59051e-05, cumulative = -0.00036251
smoothSolver:  Solving for omega, Initial residual = 0.000933817, Final residual = 8.37765e-05, No Iterations 3
bounding omega, min: -61.8318 max: 16605.6 average: 107.869
smoothSolver:  Solving for k, Initial residual = 0.00441051, Final residual = 0.000300649, No Iterations 3
ExecutionTime = 0.24 s  ClockTime = 2 s

forceCoeffs forceCoeffs_object write:
    Cm    = 0.074644
    Cd    = 2.18307
    Cl    = -1.05977
    Cl(f) = -0.455243
    Cl(r) = -0.604531

Time = 7

smoothSolver:  Solving for Ux, Initial residual = 0.00584312, Final residual = 0.000537943, No Iterations 11
smoothSolver:  Solving for Uy, Initial residual = 0.00948182, Final residual = 0.00085789, No Iterations 12
GAMG:  Solving for p, Initial residual = 0.0386405, Final residual = 0.000378055, No Iterations 11
time step continuity errors : sum local = 0.000165972, global = 7.49424e-05, cumulative = -0.000287568
smoothSolver:  Solving for omega, Initial residual = 0.000757428, Final residual = 5.96278e-05, No Iterations 3
bounding omega, min: -531.231 max: 13265.5 average: 117.222
smoothSolver:  Solving for k, Initial residual = 0.00371423, Final residual = 0.000228219, No Iterations 3
bounding k, min: -0.00883988 max: 3.3896 average: 0.0130035
ExecutionTime = 0.27 s  ClockTime = 2 s

forceCoeffs forceCoeffs_object write:
    Cm    = 0.120115
    Cd    = 2.0738
    Cl    = -1.21676
    Cl(f) = -0.488264
    Cl(r) = -0.728495

Time = 8

smoothSolver:  Solving for Ux, Initial residual = 0.00519684, Final residual = 0.00049623, No Iterations 10
smoothSolver:  Solving for Uy, Initial residual = 0.00808762, Final residual = 0.000728413, No Iterations 12
GAMG:  Solving for p, Initial residual = 0.0288585, Final residual = 0.000240655, No Iterations 12
time step continuity errors : sum local = 0.000136983, global = -5.36559e-05, cumulative = -0.000341224
smoothSolver:  Solving for omega, Initial residual = 0.000642548, Final residual = 4.53567e-05, No Iterations 3
smoothSolver:  Solving for k, Initial residual = 0.00335153, Final residual = 0.000209487, No Iterations 3
ExecutionTime = 0.29 s  ClockTime = 2 s

forceCoeffs forceCoeffs_object write:
    Cm    = 0.137597
    Cd    = 1.92145
    Cl    = -1.26103
    Cl(f) = -0.492916
    Cl(r) = -0.76811

Time = 9

smoothSolver:  Solving for Ux, Initial residual = 0.00487568, Final residual = 0.000462216, No Iterations 10
smoothSolver:  Solving for Uy, Initial residual = 0.006892, Final residual = 0.000603525, No Iterations 12
GAMG:  Solving for p, Initial residual = 0.0247966, Final residual = 0.000231686, No Iterations 12
time step continuity errors : sum local = 0.000153813, global = -5.88383e-05, cumulative = -0.000400062
smoothSolver:  Solving for omega, Initial residual = 0.000631146, Final residual = 3.1958e-05, No Iterations 3
smoothSolver:  Solving for k, Initial residual = 0.00289656, Final residual = 0.000187818, No Iterations 3
ExecutionTime = 0.32 s  ClockTime = 2 s

forceCoeffs forceCoeffs_object write:
    Cm    = 0.145419
    Cd    = 1.68521
    Cl    = -1.19826
    Cl(f) = -0.45371
    Cl(r) = -0.744547

Time = 10

smoothSolver:  Solving for Ux, Initial residual = 0.00461416, Final residual = 0.000454399, No Iterations 10
smoothSolver:  Solving for Uy, Initial residual = 0.00603239, Final residual = 0.000523441, No Iterations 12
GAMG:  Solving for p, Initial residual = 0.0230003, Final residual = 0.000202202, No Iterations 12
time step continuity errors : sum local = 0.000147671, global = -5.37834e-05, cumulative = -0.000453846
smoothSolver:  Solving for omega, Initial residual = 0.000581373, Final residual = 5.12254e-05, No Iterations 2
bounding omega, min: -432.342 max: 16505.3 average: 143.788
smoothSolver:  Solving for k, Initial residual = 0.00274177, Final residual = 0.000190381, No Iterations 3
ExecutionTime = 0.35 s  ClockTime = 2 s

forceCoeffs forceCoeffs_object write:
    Cm    = 0.114014
    Cd    = 1.54498
    Cl    = -1.11947
    Cl(f) = -0.445721
    Cl(r) = -0.67375

Time = 11

smoothSolver:  Solving for Ux, Initial residual = 0.00448923, Final residual = 0.000396299, No Iterations 11
smoothSolver:  Solving for Uy, Initial residual = 0.00566003, Final residual = 0.000511222, No Iterations 12
GAMG:  Solving for p, Initial residual = 0.0230707, Final residual = 0.000193394, No Iterations 11
time step continuity errors : sum local = 0.000144692, global = 5.45241e-05, cumulative = -0.000399321
smoothSolver:  Solving for omega, Initial residual = 0.000488589, Final residual = 2.54045e-05, No Iterations 3
smoothSolver:  Solving for k, Initial residual = 0.00228997, Final residual = 0.000129608, No Iterations 3
ExecutionTime = 0.37 s  ClockTime = 2 s

forceCoeffs forceCoeffs_object write:
    Cm    = 0.0711758
    Cd    = 1.48145
    Cl    = -1.06658
    Cl(f) = -0.462115
    Cl(r) = -0.604467

Time = 12

smoothSolver:  Solving for Ux, Initial residual = 0.00435609, Final residual = 0.000384082, No Iterations 11
smoothSolver:  Solving for Uy, Initial residual = 0.00544447, Final residual = 0.000490989, No Iterations 12
GAMG:  Solving for p, Initial residual = 0.0260273, Final residual = 0.000208816, No Iterations 7
time step continuity errors : sum local = 0.000167626, global = 4.53947e-05, cumulative = -0.000353927
smoothSolver:  Solving for omega, Initial residual = 0.000974232, Final residual = 6.22619e-05, No Iterations 2
smoothSolver:  Solving for k, Initial residual = 0.00212994, Final residual = 0.000154913, No Iterations 2
ExecutionTime = 0.39 s  ClockTime = 2 s

forceCoeffs forceCoeffs_object write:
    Cm    = 0.0285347
    Cd    = 1.50073
    Cl    = -1.02295
    Cl(f) = -0.482942
    Cl(r) = -0.540011

Time = 13

smoothSolver:  Solving for Ux, Initial residual = 0.00430754, Final residual = 0.000385666, No Iterations 11
smoothSolver:  Solving for Uy, Initial residual = 0.00531204, Final residual = 0.000523767, No Iterations 11
GAMG:  Solving for p, Initial residual = 0.0171926, Final residual = 0.000160646, No Iterations 9
time step continuity errors : sum local = 0.000120382, global = -3.95477e-05, cumulative = -0.000393474
smoothSolver:  Solving for omega, Initial residual = 0.00601024, Final residual = 0.000158612, No Iterations 1
bounding omega, min: -1250.85 max: 54981.7 average: 193.809
smoothSolver:  Solving for k, Initial residual = 0.00126047, Final residual = 0.000107258, No Iterations 2
ExecutionTime = 0.41 s  ClockTime = 2 s

forceCoeffs forceCoeffs_object write:
    Cm    = -0.00232345
    Cd    = 1.57343
    Cl    = -0.995532
    Cl(f) = -0.500089
    Cl(r) = -0.495442

Time = 14

smoothSolver:  Solving for Ux, Initial residual = 0.00430585, Final residual = 0.000396505, No Iterations 11
smoothSolver:  Solving for Uy, Initial residual = 0.0051245, Final residual = 0.00049824, No Iterations 11
GAMG:  Solving for p, Initial residual = 0.0163788, Final residual = 0.000138957, No Iterations 10
time step continuity errors : sum local = 0.00010231, global = 4.237e-05, cumulative = -0.000351104
smoothSolver:  Solving for omega, Initial residual = 0.00112908, Final residual = 4.58793e-05, No Iterations 2
smoothSolver:  Solving for k, Initial residual = 0.000999732, Final residual = 4.66082e-05, No Iterations 3
ExecutionTime = 0.43 s  ClockTime = 2 s

forceCoeffs forceCoeffs_object write:
    Cm    = -0.024814
    Cd    = 1.69041
    Cl    = -0.987713
    Cl(f) = -0.51867
    Cl(r) = -0.469042

Time = 15

smoothSolver:  Solving for Ux, Initial residual = 0.00423742, Final residual = 0.000393037, No Iterations 11
smoothSolver:  Solving for Uy, Initial residual = 0.00491019, Final residual = 0.00045055, No Iterations 11
GAMG:  Solving for p, Initial residual = 0.016061, Final residual = 0.000155828, No Iterations 10
time step continuity errors : sum local = 0.000112334, global = 3.20886e-05, cumulative = -0.000319016
smoothSolver:  Solving for omega, Initial residual = 0.000364849, Final residual = 1.79622e-05, No Iterations 3
smoothSolver:  Solving for k, Initial residual = 0.000861753, Final residual = 5.00763e-05, No Iterations 3
ExecutionTime = 0.45 s  ClockTime = 2 s

forceCoeffs forceCoeffs_object write:
    Cm    = -0.0378491
    Cd    = 1.82382
    Cl    = -0.984456
    Cl(f) = -0.530077
    Cl(r) = -0.454379

Time = 16

smoothSolver:  Solving for Ux, Initial residual = 0.00422988, Final residual = 0.000395021, No Iterations 11
smoothSolver:  Solving for Uy, Initial residual = 0.00488041, Final residual = 0.000483271, No Iterations 10
GAMG:  Solving for p, Initial residual = 0.0148304, Final residual = 0.000137037, No Iterations 12
time step continuity errors : sum local = 9.68562e-05, global = 2.91042e-05, cumulative = -0.000289912
smoothSolver:  Solving for omega, Initial residual = 0.000266294, Final residual = 1.79726e-05, No Iterations 3
smoothSolver:  Solving for k, Initial residual = 0.000875517, Final residual = 5.14911e-05, No Iterations 3
ExecutionTime = 0.48 s  ClockTime = 2 s

forceCoeffs forceCoeffs_object write:
    Cm    = -0.0508427
    Cd    = 1.94314
    Cl    = -0.978537
    Cl(f) = -0.540111
    Cl(r) = -0.438426

Time = 17

smoothSolver:  Solving for Ux, Initial residual = 0.00420376, Final residual = 0.000387532, No Iterations 11
smoothSolver:  Solving for Uy, Initial residual = 0.00497411, Final residual = 0.000464197, No Iterations 10
GAMG:  Solving for p, Initial residual = 0.0132233, Final residual = 0.000118531, No Iterations 14
time step continuity errors : sum local = 8.33104e-05, global = 2.62159e-05, cumulative = -0.000263696
smoothSolver:  Solving for omega, Initial residual = 0.00025247, Final residual = 1.57349e-05, No Iterations 3
smoothSolver:  Solving for k, Initial residual = 0.000852179, Final residual = 4.71238e-05, No Iterations 3
ExecutionTime = 0.5 s  ClockTime = 2 s

forceCoeffs forceCoeffs_object write:
    Cm    = -0.0697011
    Cd    = 2.05128
    Cl    = -0.970926
    Cl(f) = -0.555164
    Cl(r) = -0.415762

Time = 18

smoothSolver:  Solving for Ux, Initial residual = 0.00414278, Final residual = 0.000378185, No Iterations 11
smoothSolver:  Solving for Uy, Initial residual = 0.0050371, Final residual = 0.000439716, No Iterations 10
GAMG:  Solving for p, Initial residual = 0.0127159, Final residual = 0.000117923, No Iterations 15
time step continuity errors : sum local = 8.33438e-05, global = -3.43683e-05, cumulative = -0.000298064
smoothSolver:  Solving for omega, Initial residual = 0.000273365, Final residual = 1.5791e-05, No Iterations 3
smoothSolver:  Solving for k, Initial residual = 0.000919918, Final residual = 4.65999e-05, No Iterations 3
ExecutionTime = 0.53 s  ClockTime = 2 s

forceCoeffs forceCoeffs_object write:
    Cm    = -0.0953159
    Cd    = 2.13557
    Cl    = -0.958624
    Cl(f) = -0.574628
    Cl(r) = -0.383996

Time = 19

smoothSolver:  Solving for Ux, Initial residual = 0.0041238, Final residual = 0.000366996, No Iterations 11
smoothSolver:  Solving for Uy, Initial residual = 0.00510884, Final residual = 0.000491722, No Iterations 9
GAMG:  Solving for p, Initial residual = 0.0119185, Final residual = 8.93458e-05, No Iterations 16
time step continuity errors : sum local = 6.35093e-05, global = 2.14231e-05, cumulative = -0.000276641
smoothSolver:  Solving for omega, Initial residual = 0.000293193, Final residual = 1.44916e-05, No Iterations 3
smoothSolver:  Solving for k, Initial residual = 0.000816002, Final residual = 3.92736e-05, No Iterations 3
ExecutionTime = 0.55 s  ClockTime = 2 s

forceCoeffs forceCoeffs_object write:
    Cm    = -0.130134
    Cd    = 2.20306
    Cl    = -0.942512
    Cl(f) = -0.60139
    Cl(r) = -0.341122

Time = 20

smoothSolver:  Solving for Ux, Initial residual = 0.00409575, Final residual = 0.000356034, No Iterations 11
smoothSolver:  Solving for Uy, Initial residual = 0.00525013, Final residual = 0.000480837, No Iterations 9
GAMG:  Solving for p, Initial residual = 0.011829, Final residual = 8.6474e-05, No Iterations 16
time step continuity errors : sum local = 6.23835e-05, global = 2.30525e-05, cumulative = -0.000253588
smoothSolver:  Solving for omega, Initial residual = 0.000302745, Final residual = 3.00205e-05, No Iterations 2
smoothSolver:  Solving for k, Initial residual = 0.00075664, Final residual = 3.15453e-05, No Iterations 3
ExecutionTime = 0.58 s  ClockTime = 2 s

forceCoeffs forceCoeffs_object write:
    Cm    = -0.168947
    Cd    = 2.24609
    Cl    = -0.919816
    Cl(f) = -0.628856
    Cl(r) = -0.290961

Time = 21

smoothSolver:  Solving for Ux, Initial residual = 0.00405444, Final residual = 0.000395258, No Iterations 10
smoothSolver:  Solving for Uy, Initial residual = 0.00547304, Final residual = 0.000488522, No Iterations 9
GAMG:  Solving for p, Initial residual = 0.0112879, Final residual = 8.49069e-05, No Iterations 16
time step continuity errors : sum local = 6.14704e-05, global = 2.49037e-05, cumulative = -0.000228685
smoothSolver:  Solving for omega, Initial residual = 0.000328587, Final residual = 2.56095e-05, No Iterations 2
smoothSolver:  Solving for k, Initial residual = 0.000747723, Final residual = 6.99309e-05, No Iterations 2
bounding k, min: -0.100692 max: 11.2777 average: 0.0668879
ExecutionTime = 0.61 s  ClockTime = 2 s

forceCoeffs forceCoeffs_object write:
    Cm    = -0.208899
    Cd    = 2.2736
    Cl    = -0.894218
    Cl(f) = -0.656008
    Cl(r) = -0.23821

Time = 22

smoothSolver:  Solving for Ux, Initial residual = 0.00404105, Final residual = 0.000382845, No Iterations 10
smoothSolver:  Solving for Uy, Initial residual = 0.00564592, Final residual = 0.000490696, No Iterations 9
GAMG:  Solving for p, Initial residual = 0.0107664, Final residual = 8.53841e-05, No Iterations 16
time step continuity errors : sum local = 6.19421e-05, global = 2.76032e-05, cumulative = -0.000201082
smoothSolver:  Solving for omega, Initial residual = 0.000344285, Final residual = 3.06044e-05, No Iterations 2
smoothSolver:  Solving for k, Initial residual = 0.000790128, Final residual = 7.03348e-05, No Iterations 2
bounding k, min: -0.0780374 max: 14.1035 average: 0.0738215
ExecutionTime = 0.63 s  ClockTime = 2 s

forceCoeffs forceCoeffs_object write:
    Cm    = -0.252741
    Cd    = 2.29007
    Cl    = -0.862221
    Cl(f) = -0.683852
    Cl(r) = -0.178369

Time = 23

smoothSolver:  Solving for Ux, Initial residual = 0.00400536, Final residual = 0.000373456, No Iterations 10
smoothSolver:  Solving for Uy, Initial residual = 0.00579168, Final residual = 0.000504022, No Iterations 9
GAMG:  Solving for p, Initial residual = 0.0110753, Final residual = 9.45504e-05, No Iterations 16
time step continuity errors : sum local = 6.79983e-05, global = 2.93839e-05, cumulative = -0.000171698
smoothSolver:  Solving for omega, Initial residual = 0.000373378, Final residual = 2.9213e-05, No Iterations 2
smoothSolver:  Solving for k, Initial residual = 0.000772053, Final residual = 6.5447e-05, No Iterations 2
ExecutionTime = 0.66 s  ClockTime = 2 s

forceCoeffs forceCoeffs_object write:
    Cm    = -0.299622
    Cd    = 2.30106
    Cl    = -0.827537
    Cl(f) = -0.71339
    Cl(r) = -0.114146

Time = 24

smoothSolver:  Solving for Ux, Initial residual = 0.00398445, Final residual = 0.000368855, No Iterations 10
smoothSolver:  Solving for Uy, Initial residual = 0.00606464, Final residual = 0.000521726, No Iterations 9
GAMG:  Solving for p, Initial residual = 0.0114534, Final residual = 0.000107735, No Iterations 16
time step continuity errors : sum local = 7.67771e-05, global = 3.11756e-05, cumulative = -0.000140522
smoothSolver:  Solving for omega, Initial residual = 0.000389554, Final residual = 2.907e-05, No Iterations 2
smoothSolver:  Solving for k, Initial residual = 0.000747832, Final residual = 6.15204e-05, No Iterations 2
bounding k, min: -0.182488 max: 10.9492 average: 0.0818138
ExecutionTime = 0.68 s  ClockTime = 2 s

forceCoeffs forceCoeffs_object write:
    Cm    = -0.348509
    Cd    = 2.29812
    Cl    = -0.786864
    Cl(f) = -0.741941
    Cl(r) = -0.0449227

Time = 25

smoothSolver:  Solving for Ux, Initial residual = 0.0039858, Final residual = 0.00036325, No Iterations 10
smoothSolver:  Solving for Uy, Initial residual = 0.00642695, Final residual = 0.000553356, No Iterations 9
GAMG:  Solving for p, Initial residual = 0.0120102, Final residual = 0.000118956, No Iterations 16
time step continuity errors : sum local = 8.40587e-05, global = 3.17659e-05, cumulative = -0.000108756
smoothSolver:  Solving for omega, Initial residual = 0.000397103, Final residual = 3.14338e-05, No Iterations 2
smoothSolver:  Solving for k, Initial residual = 0.000741191, Final residual = 6.55012e-05, No Iterations 2
bounding k, min: -0.000940649 max: 9.30319 average: 0.0857006
ExecutionTime = 0.71 s  ClockTime = 2 s

forceCoeffs forceCoeffs_object write:
    Cm    = -0.397589
    Cd    = 2.27666
    Cl    = -0.741555
    Cl(f) = -0.768366
    Cl(r) = 0.0268115

Time = 26

smoothSolver:  Solving for Ux, Initial residual = 0.00404787, Final residual = 0.000364032, No Iterations 10
smoothSolver:  Solving for Uy, Initial residual = 0.00706087, Final residual = 0.000606134, No Iterations 9
GAMG:  Solving for p, Initial residual = 0.0127639, Final residual = 0.000117124, No Iterations 17
time step continuity errors : sum local = 8.33929e-05, global = -4.02498e-05, cumulative = -0.000149006
smoothSolver:  Solving for omega, Initial residual = 0.000405769, Final residual = 3.31306e-05, No Iterations 2
smoothSolver:  Solving for k, Initial residual = 0.000730828, Final residual = 6.55406e-05, No Iterations 2
ExecutionTime = 0.73 s  ClockTime = 2 s

forceCoeffs forceCoeffs_object write:
    Cm    = -0.443486
    Cd    = 2.22613
    Cl    = -0.688889
    Cl(f) = -0.78793
    Cl(r) = 0.0990411

Time = 27

smoothSolver:  Solving for Ux, Initial residual = 0.00418413, Final residual = 0.000372415, No Iterations 10
smoothSolver:  Solving for Uy, Initial residual = 0.00777113, Final residual = 0.000677458, No Iterations 9
GAMG:  Solving for p, Initial residual = 0.0130314, Final residual = 0.000123249, No Iterations 16
time step continuity errors : sum local = 8.97735e-05, global = 3.21822e-05, cumulative = -0.000116824
smoothSolver:  Solving for omega, Initial residual = 0.000385389, Final residual = 3.36299e-05, No Iterations 2
smoothSolver:  Solving for k, Initial residual = 0.0007242, Final residual = 6.50546e-05, No Iterations 2
ExecutionTime = 0.76 s  ClockTime = 2 s

forceCoeffs forceCoeffs_object write:
    Cm    = -0.47816
    Cd    = 2.1504
    Cl    = -0.634182
    Cl(f) = -0.795251
    Cl(r) = 0.161069

Time = 28

smoothSolver:  Solving for Ux, Initial residual = 0.00437424, Final residual = 0.000397533, No Iterations 10
smoothSolver:  Solving for Uy, Initial residual = 0.00894783, Final residual = 0.000792666, No Iterations 9
GAMG:  Solving for p, Initial residual = 0.0127051, Final residual = 0.000122951, No Iterations 16
time step continuity errors : sum local = 9.28704e-05, global = 3.51643e-05, cumulative = -8.16594e-05
smoothSolver:  Solving for omega, Initial residual = 0.000371574, Final residual = 3.1771e-05, No Iterations 2
smoothSolver:  Solving for k, Initial residual = 0.000705673, Final residual = 6.4242e-05, No Iterations 2
ExecutionTime = 0.78 s  ClockTime = 2 s

forceCoeffs forceCoeffs_object write:
    Cm    = -0.498976
    Cd    = 2.03401
    Cl    = -0.56958
    Cl(f) = -0.783766
    Cl(r) = 0.214186

Time = 29

smoothSolver:  Solving for Ux, Initial residual = 0.00458177, Final residual = 0.00042011, No Iterations 10
smoothSolver:  Solving for Uy, Initial residual = 0.0101856, Final residual = 0.000945419, No Iterations 9
GAMG:  Solving for p, Initial residual = 0.0126965, Final residual = 0.000126404, No Iterations 16
time step continuity errors : sum local = 0.000100136, global = 4.05419e-05, cumulative = -4.11175e-05
smoothSolver:  Solving for omega, Initial residual = 0.000344339, Final residual = 3.12927e-05, No Iterations 2
smoothSolver:  Solving for k, Initial residual = 0.000710297, Final residual = 6.09893e-05, No Iterations 2
ExecutionTime = 0.81 s  ClockTime = 2 s

forceCoeffs forceCoeffs_object write:
    Cm    = -0.504534
    Cd    = 1.90203
    Cl    = -0.506733
    Cl(f) = -0.7579
    Cl(r) = 0.251167

Time = 30

smoothSolver:  Solving for Ux, Initial residual = 0.0048847, Final residual = 0.000460616, No Iterations 10
smoothSolver:  Solving for Uy, Initial residual = 0.0120451, Final residual = 0.00112915, No Iterations 9
GAMG:  Solving for p, Initial residual = 0.0123527, Final residual = 9.94612e-05, No Iterations 18
time step continuity errors : sum local = 8.32261e-05, global = 3.38055e-05, cumulative = -7.31195e-06
smoothSolver:  Solving for omega, Initial residual = 0.000330742, Final residual = 3.06746e-05, No Iterations 2
smoothSolver:  Solving for k, Initial residual = 0.00073169, Final residual = 6.32528e-05, No Iterations 2
ExecutionTime = 0.84 s  ClockTime = 2 s

forceCoeffs forceCoeffs_object write:
    Cm    = -0.483044
    Cd    = 1.70099
    Cl    = -0.424437
    Cl(f) = -0.695262
    Cl(r) = 0.270825

Time = 31

smoothSolver:  Solving for Ux, Initial residual = 0.00527196, Final residual = 0.00050913, No Iterations 10
smoothSolver:  Solving for Uy, Initial residual = 0.0142814, Final residual = 0.00136156, No Iterations 9
GAMG:  Solving for p, Initial residual = 0.0118306, Final residual = 9.41435e-05, No Iterations 18
time step continuity errors : sum local = 8.29118e-05, global = 3.39824e-05, cumulative = 2.66705e-05
smoothSolver:  Solving for omega, Initial residual = 0.000323753, Final residual = 2.981e-05, No Iterations 2
smoothSolver:  Solving for k, Initial residual = 0.000772028, Final residual = 6.41242e-05, No Iterations 2
ExecutionTime = 0.86 s  ClockTime = 2 s

forceCoeffs forceCoeffs_object write:
    Cm    = -0.445074
    Cd    = 1.4879
    Cl    = -0.343159
    Cl(f) = -0.616654
    Cl(r) = 0.273495

Time = 32

smoothSolver:  Solving for Ux, Initial residual = 0.00576726, Final residual = 0.000523689, No Iterations 11
smoothSolver:  Solving for Uy, Initial residual = 0.0171496, Final residual = 0.00166819, No Iterations 9
GAMG:  Solving for p, Initial residual = 0.0112143, Final residual = 9.95041e-05, No Iterations 18
time step continuity errors : sum local = 9.38241e-05, global = 4.26626e-05, cumulative = 6.93331e-05
smoothSolver:  Solving for omega, Initial residual = 0.000312533, Final residual = 2.75682e-05, No Iterations 2
smoothSolver:  Solving for k, Initial residual = 0.000840293, Final residual = 6.80608e-05, No Iterations 2
ExecutionTime = 0.89 s  ClockTime = 2 s

forceCoeffs forceCoeffs_object write:
    Cm    = -0.371015
    Cd    = 1.1881
    Cl    = -0.24098
    Cl(f) = -0.491505
    Cl(r) = 0.250525

Time = 33

smoothSolver:  Solving for Ux, Initial residual = 0.00641865, Final residual = 0.0005864, No Iterations 11
smoothSolver:  Solving for Uy, Initial residual = 0.0217623, Final residual = 0.00207751, No Iterations 9
GAMG:  Solving for p, Initial residual = 0.0106714, Final residual = 9.92268e-05, No Iterations 18
time step continuity errors : sum local = 9.71767e-05, global = 4.56154e-05, cumulative = 0.000114949
smoothSolver:  Solving for omega, Initial residual = 0.000300697, Final residual = 2.80174e-05, No Iterations 2
smoothSolver:  Solving for k, Initial residual = 0.000888953, Final residual = 6.78424e-05, No Iterations 2
ExecutionTime = 0.92 s  ClockTime = 2 s

forceCoeffs forceCoeffs_object write:
    Cm    = -0.290553
    Cd    = 0.882098
    Cl    = -0.139415
    Cl(f) = -0.360261
    Cl(r) = 0.220846

Time = 34

smoothSolver:  Solving for Ux, Initial residual = 0.00707478, Final residual = 0.00068495, No Iterations 11
smoothSolver:  Solving for Uy, Initial residual = 0.0282426, Final residual = 0.00242246, No Iterations 10
GAMG:  Solving for p, Initial residual = 0.0107272, Final residual = 9.51527e-05, No Iterations 18
time step continuity errors : sum local = 9.7758e-05, global = 4.8663e-05, cumulative = 0.000163611
smoothSolver:  Solving for omega, Initial residual = 0.000286841, Final residual = 2.72126e-05, No Iterations 2
smoothSolver:  Solving for k, Initial residual = 0.000967335, Final residual = 7.27661e-05, No Iterations 2
ExecutionTime = 0.95 s  ClockTime = 2 s

forceCoeffs forceCoeffs_object write:
    Cm    = -0.197854
    Cd    = 0.580611
    Cl    = -0.0449905
    Cl(f) = -0.220349
    Cl(r) = 0.175358

Time = 35

smoothSolver:  Solving for Ux, Initial residual = 0.00789609, Final residual = 0.000766713, No Iterations 11
smoothSolver:  Solving for Uy, Initial residual = 0.0392772, Final residual = 0.00384152, No Iterations 9
GAMG:  Solving for p, Initial residual = 0.0111358, Final residual = 0.000103408, No Iterations 18
time step continuity errors : sum local = 0.00010709, global = 5.72795e-05, cumulative = 0.000220891
smoothSolver:  Solving for omega, Initial residual = 0.000269338, Final residual = 2.51461e-05, No Iterations 2
smoothSolver:  Solving for k, Initial residual = 0.00103261, Final residual = 7.29702e-05, No Iterations 2
ExecutionTime = 0.97 s  ClockTime = 2 s

forceCoeffs forceCoeffs_object write:
    Cm    = -0.0980981
    Cd    = 0.287217
    Cl    = 0.0432745
    Cl(f) = -0.0764609
    Cl(r) = 0.119735

Time = 36

smoothSolver:  Solving for Ux, Initial residual = 0.00864784, Final residual = 0.000843778, No Iterations 11
smoothSolver:  Solving for Uy, Initial residual = 0.053961, Final residual = 0.00534936, No Iterations 9
GAMG:  Solving for p, Initial residual = 0.0122076, Final residual = 0.00010551, No Iterations 19
time step continuity errors : sum local = 0.000106425, global = -4.54036e-05, cumulative = 0.000175487
smoothSolver:  Solving for omega, Initial residual = 0.000255185, Final residual = 2.35943e-05, No Iterations 2
smoothSolver:  Solving for k, Initial residual = 0.00109824, Final residual = 7.26096e-05, No Iterations 2
ExecutionTime = 1 s  ClockTime = 2 s

forceCoeffs forceCoeffs_object write:
    Cm    = -0.0049277
    Cd    = 0.0370816
    Cl    = 0.115732
    Cl(f) = 0.0529383
    Cl(r) = 0.0627937

Time = 37

smoothSolver:  Solving for Ux, Initial residual = 0.00941182, Final residual = 0.000926515, No Iterations 11
smoothSolver:  Solving for Uy, Initial residual = 0.0748874, Final residual = 0.00725616, No Iterations 9
GAMG:  Solving for p, Initial residual = 0.0130664, Final residual = 0.000120266, No Iterations 19
time step continuity errors : sum local = 0.000115604, global = -4.6152e-05, cumulative = 0.000129335
smoothSolver:  Solving for omega, Initial residual = 0.000241397, Final residual = 2.1954e-05, No Iterations 2
smoothSolver:  Solving for k, Initial residual = 0.00114788, Final residual = 7.11553e-05, No Iterations 2
ExecutionTime = 1.03 s  ClockTime = 3 s

forceCoeffs forceCoeffs_object write:
    Cm    = 0.0653512
    Cd    = -0.128164
    Cl    = 0.159097
    Cl(f) = 0.1449
    Cl(r) = 0.0141971

Time = 38

smoothSolver:  Solving for Ux, Initial residual = 0.0104748, Final residual = 0.00102111, No Iterations 11
smoothSolver:  Solving for Uy, Initial residual = 0.0916519, Final residual = 0.00870475, No Iterations 9
GAMG:  Solving for p, Initial residual = 0.0148288, Final residual = 0.000146128, No Iterations 17
time step continuity errors : sum local = 0.000129456, global = -5.62929e-05, cumulative = 7.30424e-05
smoothSolver:  Solving for omega, Initial residual = 0.000239234, Final residual = 2.13585e-05, No Iterations 2
smoothSolver:  Solving for k, Initial residual = 0.00121039, Final residual = 7.5495e-05, No Iterations 2
ExecutionTime = 1.06 s  ClockTime = 3 s

forceCoeffs forceCoeffs_object write:
    Cm    = 0.11359
    Cd    = -0.238487
    Cl    = 0.183424
    Cl(f) = 0.205302
    Cl(r) = -0.0218776

Time = 39

smoothSolver:  Solving for Ux, Initial residual = 0.011911, Final residual = 0.00115706, No Iterations 11
smoothSolver:  Solving for Uy, Initial residual = 0.0950098, Final residual = 0.00844829, No Iterations 10
GAMG:  Solving for p, Initial residual = 0.0177928, Final residual = 0.000151486, No Iterations 12
time step continuity errors : sum local = 0.000117432, global = -4.13636e-05, cumulative = 3.16788e-05
smoothSolver:  Solving for omega, Initial residual = 0.000256214, Final residual = 2.11968e-05, No Iterations 2
smoothSolver:  Solving for k, Initial residual = 0.00127056, Final residual = 7.60043e-05, No Iterations 2
ExecutionTime = 1.08 s  ClockTime = 3 s

forceCoeffs forceCoeffs_object write:
    Cm    = 0.113888
    Cd    = -0.26252
    Cl    = 0.185548
    Cl(f) = 0.206662
    Cl(r) = -0.0211144

Time = 40

smoothSolver:  Solving for Ux, Initial residual = 0.014079, Final residual = 0.00139746, No Iterations 11
smoothSolver:  Solving for Uy, Initial residual = 0.0998888, Final residual = 0.00907332, No Iterations 10
GAMG:  Solving for p, Initial residual = 0.0200374, Final residual = 0.000170505, No Iterations 13
time step continuity errors : sum local = 0.00011949, global = 4.07166e-05, cumulative = 7.23955e-05
smoothSolver:  Solving for omega, Initial residual = 0.000261628, Final residual = 2.2097e-05, No Iterations 2
smoothSolver:  Solving for k, Initial residual = 0.00136685, Final residual = 8.46922e-05, No Iterations 2
ExecutionTime = 1.1 s  ClockTime = 3 s

forceCoeffs forceCoeffs_object write:
    Cm    = 0.0759662
    Cd    = -0.195775
    Cl    = 0.161756
    Cl(f) = 0.156844
    Cl(r) = 0.00491182

Time = 41

smoothSolver:  Solving for Ux, Initial residual = 0.0167672, Final residual = 0.00161508, No Iterations 11
smoothSolver:  Solving for Uy, Initial residual = 0.0928672, Final residual = 0.0086257, No Iterations 10
GAMG:  Solving for p, Initial residual = 0.0214799, Final residual = 0.00017069, No Iterations 13
time step continuity errors : sum local = 0.00011093, global = 3.43115e-05, cumulative = 0.000106707
smoothSolver:  Solving for omega, Initial residual = 0.000263057, Final residual = 2.33917e-05, No Iterations 2
smoothSolver:  Solving for k, Initial residual = 0.00150001, Final residual = 0.000101071, No Iterations 2
ExecutionTime = 1.13 s  ClockTime = 3 s

forceCoeffs forceCoeffs_object write:
    Cm    = 0.0177855
    Cd    = -0.0512249
    Cl    = 0.111171
    Cl(f) = 0.0733712
    Cl(r) = 0.0378002

Time = 42

smoothSolver:  Solving for Ux, Initial residual = 0.0204212, Final residual = 0.00181239, No Iterations 11
smoothSolver:  Solving for Uy, Initial residual = 0.0705436, Final residual = 0.0064913, No Iterations 10
GAMG:  Solving for p, Initial residual = 0.0222969, Final residual = 0.000192684, No Iterations 13
time step continuity errors : sum local = 0.000125515, global = 4.53735e-05, cumulative = 0.000152081
smoothSolver:  Solving for omega, Initial residual = 0.000261456, Final residual = 2.48207e-05, No Iterations 2
smoothSolver:  Solving for k, Initial residual = 0.00167316, Final residual = 0.000107948, No Iterations 2
ExecutionTime = 1.15 s  ClockTime = 3 s

forceCoeffs forceCoeffs_object write:
    Cm    = -0.0258724
    Cd    = 0.0746889
    Cl    = 0.064045
    Cl(f) = 0.00615008
    Cl(r) = 0.057895

Time = 43

smoothSolver:  Solving for Ux, Initial residual = 0.0260726, Final residual = 0.00251533, No Iterations 10
smoothSolver:  Solving for Uy, Initial residual = 0.0528193, Final residual = 0.00520918, No Iterations 9
GAMG:  Solving for p, Initial residual = 0.0294694, Final residual = 0.000242548, No Iterations 14
time step continuity errors : sum local = 0.000156177, global = -5.78916e-05, cumulative = 9.41889e-05
smoothSolver:  Solving for omega, Initial residual = 0.00025762, Final residual = 1.16522e-05, No Iterations 3
smoothSolver:  Solving for k, Initial residual = 0.00180941, Final residual = 0.000126107, No Iterations 2
ExecutionTime = 1.17 s  ClockTime = 3 s

forceCoeffs forceCoeffs_object write:
    Cm    = -0.0458978
    Cd    = 0.162032
    Cl    = 0.0252412
    Cl(f) = -0.0332773
    Cl(r) = 0.0585184

Time = 44

smoothSolver:  Solving for Ux, Initial residual = 0.032924, Final residual = 0.00325509, No Iterations 10
smoothSolver:  Solving for Uy, Initial residual = 0.0414573, Final residual = 0.00361875, No Iterations 10
GAMG:  Solving for p, Initial residual = 0.0281317, Final residual = 0.000275869, No Iterations 13
time step continuity errors : sum local = 0.000157245, global = 5.29857e-05, cumulative = 0.000147175
smoothSolver:  Solving for omega, Initial residual = 0.000252011, Final residual = 1.22748e-05, No Iterations 3
smoothSolver:  Solving for k, Initial residual = 0.00194095, Final residual = 0.0001325, No Iterations 2
ExecutionTime = 1.2 s  ClockTime = 3 s

forceCoeffs forceCoeffs_object write:
    Cm    = -0.0658548
    Cd    = 0.279833
    Cl    = -0.0275287
    Cl(f) = -0.0796192
    Cl(r) = 0.0520905

Time = 45

smoothSolver:  Solving for Ux, Initial residual = 0.0412188, Final residual = 0.00373324, No Iterations 10
smoothSolver:  Solving for Uy, Initial residual = 0.03416, Final residual = 0.00313583, No Iterations 9
GAMG:  Solving for p, Initial residual = 0.0272732, Final residual = 0.000244584, No Iterations 15
time step continuity errors : sum local = 0.00013405, global = 5.42893e-05, cumulative = 0.000201464
smoothSolver:  Solving for omega, Initial residual = 0.000245158, Final residual = 1.26229e-05, No Iterations 3
smoothSolver:  Solving for k, Initial residual = 0.00203382, Final residual = 0.000154007, No Iterations 2
ExecutionTime = 1.22 s  ClockTime = 3 s

forceCoeffs forceCoeffs_object write:
    Cm    = -0.0803338
    Cd    = 0.402796
    Cl    = -0.0840282
    Cl(f) = -0.122348
    Cl(r) = 0.0383197

Time = 46

smoothSolver:  Solving for Ux, Initial residual = 0.0530309, Final residual = 0.00481733, No Iterations 9
smoothSolver:  Solving for Uy, Initial residual = 0.0290681, Final residual = 0.00272993, No Iterations 8
GAMG:  Solving for p, Initial residual = 0.025531, Final residual = 0.000245914, No Iterations 15
time step continuity errors : sum local = 0.00012958, global = 5.91991e-05, cumulative = 0.000260663
smoothSolver:  Solving for omega, Initial residual = 0.000238928, Final residual = 1.3062e-05, No Iterations 3
smoothSolver:  Solving for k, Initial residual = 0.00215, Final residual = 0.000150999, No Iterations 2
ExecutionTime = 1.25 s  ClockTime = 3 s

forceCoeffs forceCoeffs_object write:
    Cm    = -0.0756926
    Cd    = 0.477791
    Cl    = -0.126159
    Cl(f) = -0.138772
    Cl(r) = 0.0126129

Time = 47

smoothSolver:  Solving for Ux, Initial residual = 0.063969, Final residual = 0.00618985, No Iterations 8
smoothSolver:  Solving for Uy, Initial residual = 0.0258888, Final residual = 0.00222487, No Iterations 8
GAMG:  Solving for p, Initial residual = 0.036026, Final residual = 0.000349071, No Iterations 13
time step continuity errors : sum local = 0.00016993, global = 8.16613e-05, cumulative = 0.000342324
smoothSolver:  Solving for omega, Initial residual = 0.000235508, Final residual = 1.32889e-05, No Iterations 3
smoothSolver:  Solving for k, Initial residual = 0.00216992, Final residual = 0.000158293, No Iterations 2
ExecutionTime = 1.27 s  ClockTime = 3 s

forceCoeffs forceCoeffs_object write:
    Cm    = -0.0663263
    Cd    = 0.538858
    Cl    = -0.164223
    Cl(f) = -0.148438
    Cl(r) = -0.0157853

Time = 48

smoothSolver:  Solving for Ux, Initial residual = 0.0732942, Final residual = 0.00650728, No Iterations 8
smoothSolver:  Solving for Uy, Initial residual = 0.0230392, Final residual = 0.00206251, No Iterations 8
GAMG:  Solving for p, Initial residual = 0.0454958, Final residual = 0.000429294, No Iterations 12
time step continuity errors : sum local = 0.000202773, global = -7.67859e-05, cumulative = 0.000265538
smoothSolver:  Solving for omega, Initial residual = 0.000232865, Final residual = 1.35283e-05, No Iterations 3
smoothSolver:  Solving for k, Initial residual = 0.00223797, Final residual = 0.000173757, No Iterations 2
ExecutionTime = 1.29 s  ClockTime = 3 s

forceCoeffs forceCoeffs_object write:
    Cm    = -0.0562882
    Cd    = 0.597477
    Cl    = -0.202489
    Cl(f) = -0.157533
    Cl(r) = -0.0449565

Time = 49

smoothSolver:  Solving for Ux, Initial residual = 0.0802344, Final residual = 0.00800296, No Iterations 7
smoothSolver:  Solving for Uy, Initial residual = 0.0214865, Final residual = 0.00195304, No Iterations 8
GAMG:  Solving for p, Initial residual = 0.0402411, Final residual = 0.000324424, No Iterations 14
time step continuity errors : sum local = 0.000135552, global = -4.87733e-05, cumulative = 0.000216765
smoothSolver:  Solving for omega, Initial residual = 0.000234679, Final residual = 1.36815e-05, No Iterations 3
smoothSolver:  Solving for k, Initial residual = 0.00225682, Final residual = 0.000169065, No Iterations 2
ExecutionTime = 1.32 s  ClockTime = 3 s

forceCoeffs forceCoeffs_object write:
    Cm    = -0.0465389
    Cd    = 0.652121
    Cl    = -0.239654
    Cl(f) = -0.166366
    Cl(r) = -0.0732882

Time = 50

smoothSolver:  Solving for Ux, Initial residual = 0.0821107, Final residual = 0.00793295, No Iterations 7
smoothSolver:  Solving for Uy, Initial residual = 0.0205608, Final residual = 0.00178369, No Iterations 8
GAMG:  Solving for p, Initial residual = 0.0468715, Final residual = 0.000413035, No Iterations 14
time step continuity errors : sum local = 0.00015428, global = -4.61561e-05, cumulative = 0.000170609
smoothSolver:  Solving for omega, Initial residual = 0.000234079, Final residual = 1.3473e-05, No Iterations 3
smoothSolver:  Solving for k, Initial residual = 0.00222817, Final residual = 0.00017223, No Iterations 2
ExecutionTime = 1.38 s  ClockTime = 3 s

forceCoeffs forceCoeffs_object write:
    Cm    = -0.0321141
    Cd    = 0.683274
    Cl    = -0.26936
    Cl(f) = -0.166794
    Cl(r) = -0.102566

yPlus yPlus write:
    writing object yPlus
    patch suction_side y+ : min = 12.781, max = 53.744, average = 26.2922
    patch pressure_side y+ : min = 11.2709, max = 38.2207, average = 30.3931
    patch trailing_edge y+ : min = 84.479, max = 109.535, average = 97.0068

Time = 51

smoothSolver:  Solving for Ux, Initial residual = 0.075889, Final residual = 0.00673437, No Iterations 7
smoothSolver:  Solving for Uy, Initial residual = 0.019428, Final residual = 0.00175591, No Iterations 7
GAMG:  Solving for p, Initial residual = 0.0664857, Final residual = 0.000508197, No Iterations 14
time step continuity errors : sum local = 0.000157881, global = -3.70852e-05, cumulative = 0.000133524
smoothSolver:  Solving for omega, Initial residual = 0.000237591, Final residual = 1.31269e-05, No Iterations 3
smoothSolver:  Solving for k, Initial residual = 0.00216971, Final residual = 0.000164729, No Iterations 2
ExecutionTime = 1.41 s  ClockTime = 3 s

forceCoeffs forceCoeffs_object write:
    Cm    = -0.0278504
    Cd    = 0.732636
    Cl    = -0.304711
    Cl(f) = -0.180206
    Cl(r) = -0.124505

Time = 52

smoothSolver:  Solving for Ux, Initial residual = 0.0681173, Final residual = 0.00664442, No Iterations 6
smoothSolver:  Solving for Uy, Initial residual = 0.0198025, Final residual = 0.00173604, No Iterations 7
GAMG:  Solving for p, Initial residual = 0.074536, Final residual = 0.000623445, No Iterations 16
time step continuity errors : sum local = 0.000117703, global = -2.43916e-05, cumulative = 0.000109132
smoothSolver:  Solving for omega, Initial residual = 0.000240215, Final residual = 1.27219e-05, No Iterations 3
smoothSolver:  Solving for k, Initial residual = 0.00217932, Final residual = 0.000169713, No Iterations 2
ExecutionTime = 1.43 s  ClockTime = 3 s

forceCoeffs forceCoeffs_object write:
    Cm    = -0.0230671
    Cd    = 0.764714
    Cl    = -0.332691
    Cl(f) = -0.189413
    Cl(r) = -0.143278

Time = 53

smoothSolver:  Solving for Ux, Initial residual = 0.0553771, Final residual = 0.00542276, No Iterations 6
smoothSolver:  Solving for Uy, Initial residual = 0.0194279, Final residual = 0.00176544, No Iterations 7
GAMG:  Solving for p, Initial residual = 0.136002, Final residual = 0.00120429, No Iterations 14
time step continuity errors : sum local = 0.000121525, global = -2.72329e-05, cumulative = 8.18992e-05
smoothSolver:  Solving for omega, Initial residual = 0.000236934, Final residual = 1.2247e-05, No Iterations 3
smoothSolver:  Solving for k, Initial residual = 0.00203422, Final residual = 0.000156443, No Iterations 2
ExecutionTime = 1.45 s  ClockTime = 3 s

forceCoeffs forceCoeffs_object write:
    Cm    = -0.0234164
    Cd    = 0.793175
    Cl    = -0.356048
    Cl(f) = -0.20144
    Cl(r) = -0.154608

Time = 54

smoothSolver:  Solving for Ux, Initial residual = 0.0436886, Final residual = 0.00372899, No Iterations 7
smoothSolver:  Solving for Uy, Initial residual = 0.0181853, Final residual = 0.00171256, No Iterations 7
GAMG:  Solving for p, Initial residual = 0.119917, Final residual = 0.00107491, No Iterations 12
time step continuity errors : sum local = 0.000122942, global = -3.66133e-05, cumulative = 4.52859e-05
smoothSolver:  Solving for omega, Initial residual = 0.000248288, Final residual = 1.21493e-05, No Iterations 3
smoothSolver:  Solving for k, Initial residual = 0.00195932, Final residual = 0.000168428, No Iterations 2
ExecutionTime = 1.48 s  ClockTime = 3 s

forceCoeffs forceCoeffs_object write:
    Cm    = -0.03465
    Cd    = 0.840686
    Cl    = -0.382039
    Cl(f) = -0.22567
    Cl(r) = -0.15637

Time = 55

smoothSolver:  Solving for Ux, Initial residual = 0.0352256, Final residual = 0.00319272, No Iterations 7
smoothSolver:  Solving for Uy, Initial residual = 0.0170147, Final residual = 0.00161863, No Iterations 7
GAMG:  Solving for p, Initial residual = 0.120215, Final residual = 0.00102757, No Iterations 15
time step continuity errors : sum local = 0.000112192, global = 3.85022e-05, cumulative = 8.37881e-05
smoothSolver:  Solving for omega, Initial residual = 0.000257488, Final residual = 1.20133e-05, No Iterations 3
smoothSolver:  Solving for k, Initial residual = 0.00188639, Final residual = 0.000188441, No Iterations 2
ExecutionTime = 1.5 s  ClockTime = 3 s

forceCoeffs forceCoeffs_object write:
    Cm    = -0.0577762
    Cd    = 0.911847
    Cl    = -0.411652
    Cl(f) = -0.263602
    Cl(r) = -0.14805

Time = 56

smoothSolver:  Solving for Ux, Initial residual = 0.0293052, Final residual = 0.00291599, No Iterations 7
smoothSolver:  Solving for Uy, Initial residual = 0.016345, Final residual = 0.00152004, No Iterations 7
GAMG:  Solving for p, Initial residual = 0.129047, Final residual = 0.00128309, No Iterations 15
time step continuity errors : sum local = 0.000124205, global = 4.78392e-05, cumulative = 0.000131627
smoothSolver:  Solving for omega, Initial residual = 0.000274913, Final residual = 1.24346e-05, No Iterations 3
smoothSolver:  Solving for k, Initial residual = 0.00175636, Final residual = 7.8747e-05, No Iterations 3
ExecutionTime = 1.52 s  ClockTime = 3 s

forceCoeffs forceCoeffs_object write:
    Cm    = -0.0855839
    Cd    = 0.99398
    Cl    = -0.441913
    Cl(f) = -0.30654
    Cl(r) = -0.135372

Time = 57

smoothSolver:  Solving for Ux, Initial residual = 0.0251704, Final residual = 0.00240579, No Iterations 8
smoothSolver:  Solving for Uy, Initial residual = 0.0159221, Final residual = 0.00143047, No Iterations 7
GAMG:  Solving for p, Initial residual = 0.0767605, Final residual = 0.000680101, No Iterations 17
time step continuity errors : sum local = 0.000103519, global = 3.48938e-05, cumulative = 0.000166521
smoothSolver:  Solving for omega, Initial residual = 0.0002839, Final residual = 1.247e-05, No Iterations 3
smoothSolver:  Solving for k, Initial residual = 0.00161648, Final residual = 8.06617e-05, No Iterations 3
ExecutionTime = 1.55 s  ClockTime = 3 s

forceCoeffs forceCoeffs_object write:
    Cm    = -0.114872
    Cd    = 1.08303
    Cl    = -0.472691
    Cl(f) = -0.351218
    Cl(r) = -0.121473

Time = 58

smoothSolver:  Solving for Ux, Initial residual = 0.022205, Final residual = 0.00200733, No Iterations 9
smoothSolver:  Solving for Uy, Initial residual = 0.0157869, Final residual = 0.00138346, No Iterations 7
GAMG:  Solving for p, Initial residual = 0.0522387, Final residual = 0.000435714, No Iterations 17
time step continuity errors : sum local = 9.38771e-05, global = 3.13579e-05, cumulative = 0.000197879
smoothSolver:  Solving for omega, Initial residual = 0.00029433, Final residual = 1.26828e-05, No Iterations 3
smoothSolver:  Solving for k, Initial residual = 0.00146627, Final residual = 7.45476e-05, No Iterations 3
ExecutionTime = 1.58 s  ClockTime = 3 s

forceCoeffs forceCoeffs_object write:
    Cm    = -0.141166
    Cd    = 1.16822
    Cl    = -0.501398
    Cl(f) = -0.391865
    Cl(r) = -0.109534

Time = 59

smoothSolver:  Solving for Ux, Initial residual = 0.0200192, Final residual = 0.00191063, No Iterations 9
smoothSolver:  Solving for Uy, Initial residual = 0.0158871, Final residual = 0.00138733, No Iterations 7
GAMG:  Solving for p, Initial residual = 0.0401778, Final residual = 0.000367893, No Iterations 15
time step continuity errors : sum local = 0.000100959, global = 3.68164e-05, cumulative = 0.000234695
smoothSolver:  Solving for omega, Initial residual = 0.000292086, Final residual = 1.22586e-05, No Iterations 3
smoothSolver:  Solving for k, Initial residual = 0.00133897, Final residual = 6.86515e-05, No Iterations 3
ExecutionTime = 1.6 s  ClockTime = 3 s

forceCoeffs forceCoeffs_object write:
    Cm    = -0.163181
    Cd    = 1.2462
    Cl    = -0.527553
    Cl(f) = -0.426958
    Cl(r) = -0.100596

Time = 60

smoothSolver:  Solving for Ux, Initial residual = 0.0183541, Final residual = 0.00181382, No Iterations 9
smoothSolver:  Solving for Uy, Initial residual = 0.0159833, Final residual = 0.00142543, No Iterations 7
GAMG:  Solving for p, Initial residual = 0.0329231, Final residual = 0.000328846, No Iterations 14
time step continuity errors : sum local = 0.000107458, global = -4.77381e-05, cumulative = 0.000186957
smoothSolver:  Solving for omega, Initial residual = 0.00029811, Final residual = 1.1985e-05, No Iterations 3
smoothSolver:  Solving for k, Initial residual = 0.00124759, Final residual = 6.68058e-05, No Iterations 3
ExecutionTime = 1.62 s  ClockTime = 3 s

forceCoeffs forceCoeffs_object write:
    Cm    = -0.180644
    Cd    = 1.31266
    Cl    = -0.54959
    Cl(f) = -0.455439
    Cl(r) = -0.0941511

Time = 61

smoothSolver:  Solving for Ux, Initial residual = 0.0168508, Final residual = 0.00145922, No Iterations 10
smoothSolver:  Solving for Uy, Initial residual = 0.0159939, Final residual = 0.00147039, No Iterations 7
GAMG:  Solving for p, Initial residual = 0.027857, Final residual = 0.000239143, No Iterations 13
time step continuity errors : sum local = 8.92454e-05, global = 2.89005e-05, cumulative = 0.000215858
smoothSolver:  Solving for omega, Initial residual = 0.000291905, Final residual = 1.16589e-05, No Iterations 3
smoothSolver:  Solving for k, Initial residual = 0.00117949, Final residual = 6.30243e-05, No Iterations 3
ExecutionTime = 1.64 s  ClockTime = 3 s

forceCoeffs forceCoeffs_object write:
    Cm    = -0.194865
    Cd    = 1.36776
    Cl    = -0.566887
    Cl(f) = -0.478309
    Cl(r) = -0.0885787

Time = 62

smoothSolver:  Solving for Ux, Initial residual = 0.0152974, Final residual = 0.00132354, No Iterations 10
smoothSolver:  Solving for Uy, Initial residual = 0.0157808, Final residual = 0.0014934, No Iterations 7
GAMG:  Solving for p, Initial residual = 0.0237117, Final residual = 0.00020294, No Iterations 11
time step continuity errors : sum local = 8.32771e-05, global = -2.92552e-05, cumulative = 0.000186603
smoothSolver:  Solving for omega, Initial residual = 0.000291307, Final residual = 1.14595e-05, No Iterations 3
smoothSolver:  Solving for k, Initial residual = 0.00110852, Final residual = 5.96816e-05, No Iterations 3
ExecutionTime = 1.68 s  ClockTime = 3 s

forceCoeffs forceCoeffs_object write:
    Cm    = -0.206759
    Cd    = 1.4115
    Cl    = -0.57901
    Cl(f) = -0.496264
    Cl(r) = -0.0827459

Time = 63

smoothSolver:  Solving for Ux, Initial residual = 0.0137775, Final residual = 0.00118274, No Iterations 10
smoothSolver:  Solving for Uy, Initial residual = 0.0154066, Final residual = 0.0015004, No Iterations 7
GAMG:  Solving for p, Initial residual = 0.0207743, Final residual = 0.000178953, No Iterations 12
time step continuity errors : sum local = 7.8746e-05, global = 4.34565e-05, cumulative = 0.000230059
smoothSolver:  Solving for omega, Initial residual = 0.000290608, Final residual = 2.87776e-05, No Iterations 2
smoothSolver:  Solving for k, Initial residual = 0.00102596, Final residual = 5.63471e-05, No Iterations 3
ExecutionTime = 1.69 s  ClockTime = 3 s

forceCoeffs forceCoeffs_object write:
    Cm    = -0.217317
    Cd    = 1.44489
    Cl    = -0.585608
    Cl(f) = -0.51012
    Cl(r) = -0.0754871

Time = 64

smoothSolver:  Solving for Ux, Initial residual = 0.0123148, Final residual = 0.00122043, No Iterations 9
smoothSolver:  Solving for Uy, Initial residual = 0.0150467, Final residual = 0.00149607, No Iterations 7
GAMG:  Solving for p, Initial residual = 0.0192443, Final residual = 0.000153325, No Iterations 13
time step continuity errors : sum local = 7.09839e-05, global = -3.06436e-05, cumulative = 0.000199415
smoothSolver:  Solving for omega, Initial residual = 0.000295407, Final residual = 1.2282e-05, No Iterations 3
smoothSolver:  Solving for k, Initial residual = 0.000943668, Final residual = 5.10202e-05, No Iterations 3
ExecutionTime = 1.72 s  ClockTime = 3 s

forceCoeffs forceCoeffs_object write:
    Cm    = -0.227287
    Cd    = 1.47305
    Cl    = -0.587928
    Cl(f) = -0.521251
    Cl(r) = -0.0666768

Time = 65

smoothSolver:  Solving for Ux, Initial residual = 0.0110027, Final residual = 0.00108459, No Iterations 9
smoothSolver:  Solving for Uy, Initial residual = 0.0148022, Final residual = 0.00128586, No Iterations 8
GAMG:  Solving for p, Initial residual = 0.0178853, Final residual = 0.000144421, No Iterations 13
time step continuity errors : sum local = 6.93956e-05, global = -2.79227e-05, cumulative = 0.000171493
smoothSolver:  Solving for omega, Initial residual = 0.00029848, Final residual = 1.27917e-05, No Iterations 3
smoothSolver:  Solving for k, Initial residual = 0.000871155, Final residual = 4.55984e-05, No Iterations 3
ExecutionTime = 1.74 s  ClockTime = 3 s

forceCoeffs forceCoeffs_object write:
    Cm    = -0.236606
    Cd    = 1.49478
    Cl    = -0.584776
    Cl(f) = -0.528994
    Cl(r) = -0.0557822

Time = 66

smoothSolver:  Solving for Ux, Initial residual = 0.00977791, Final residual = 0.000959451, No Iterations 9
smoothSolver:  Solving for Uy, Initial residual = 0.014712, Final residual = 0.00129526, No Iterations 8
GAMG:  Solving for p, Initial residual = 0.0172869, Final residual = 0.000146635, No Iterations 13
time step continuity errors : sum local = 7.26713e-05, global = -2.6468e-05, cumulative = 0.000145025
smoothSolver:  Solving for omega, Initial residual = 0.000304554, Final residual = 2.97521e-05, No Iterations 2
smoothSolver:  Solving for k, Initial residual = 0.000824027, Final residual = 4.2216e-05, No Iterations 3
ExecutionTime = 1.76 s  ClockTime = 3 s

forceCoeffs forceCoeffs_object write:
    Cm    = -0.245781
    Cd    = 1.51442
    Cl    = -0.577993
    Cl(f) = -0.534778
    Cl(r) = -0.0432151

Time = 67

smoothSolver:  Solving for Ux, Initial residual = 0.00859839, Final residual = 0.000850821, No Iterations 9
smoothSolver:  Solving for Uy, Initial residual = 0.0146872, Final residual = 0.00133193, No Iterations 8
GAMG:  Solving for p, Initial residual = 0.0162134, Final residual = 0.000142185, No Iterations 13
time step continuity errors : sum local = 7.28315e-05, global = -2.53074e-05, cumulative = 0.000119717
smoothSolver:  Solving for omega, Initial residual = 0.000308673, Final residual = 3.03659e-05, No Iterations 2
smoothSolver:  Solving for k, Initial residual = 0.000795104, Final residual = 3.89347e-05, No Iterations 3
ExecutionTime = 1.79 s  ClockTime = 3 s

forceCoeffs forceCoeffs_object write:
    Cm    = -0.255804
    Cd    = 1.53246
    Cl    = -0.567454
    Cl(f) = -0.539531
    Cl(r) = -0.0279233

Time = 68

smoothSolver:  Solving for Ux, Initial residual = 0.00764337, Final residual = 0.000761939, No Iterations 9
smoothSolver:  Solving for Uy, Initial residual = 0.0147937, Final residual = 0.00141, No Iterations 8
GAMG:  Solving for p, Initial residual = 0.0152205, Final residual = 0.000148341, No Iterations 13
time step continuity errors : sum local = 7.91683e-05, global = -2.99892e-05, cumulative = 8.97282e-05
smoothSolver:  Solving for omega, Initial residual = 0.000313144, Final residual = 1.45667e-05, No Iterations 3
smoothSolver:  Solving for k, Initial residual = 0.000784777, Final residual = 3.74384e-05, No Iterations 3
ExecutionTime = 1.81 s  ClockTime = 3 s

forceCoeffs forceCoeffs_object write:
    Cm    = -0.266713
    Cd    = 1.54964
    Cl    = -0.553978
    Cl(f) = -0.543702
    Cl(r) = -0.0102763

Time = 69

smoothSolver:  Solving for Ux, Initial residual = 0.00674174, Final residual = 0.000598254, No Iterations 10
smoothSolver:  Solving for Uy, Initial residual = 0.015034, Final residual = 0.00130128, No Iterations 9
GAMG:  Solving for p, Initial residual = 0.0140969, Final residual = 0.000133185, No Iterations 14
time step continuity errors : sum local = 7.41717e-05, global = 2.77173e-05, cumulative = 0.000117445
smoothSolver:  Solving for omega, Initial residual = 0.000306613, Final residual = 3.0651e-05, No Iterations 2
smoothSolver:  Solving for k, Initial residual = 0.000778639, Final residual = 3.24525e-05, No Iterations 3
ExecutionTime = 1.83 s  ClockTime = 3 s

forceCoeffs forceCoeffs_object write:
    Cm    = -0.282055
    Cd    = 1.56426
    Cl    = -0.535647
    Cl(f) = -0.549879
    Cl(r) = 0.014232

Time = 70

smoothSolver:  Solving for Ux, Initial residual = 0.00605552, Final residual = 0.00055134, No Iterations 10
smoothSolver:  Solving for Uy, Initial residual = 0.0155558, Final residual = 0.00142879, No Iterations 9
GAMG:  Solving for p, Initial residual = 0.0133611, Final residual = 0.000110023, No Iterations 16
time step continuity errors : sum local = 6.41258e-05, global = 2.3085e-05, cumulative = 0.00014053
smoothSolver:  Solving for omega, Initial residual = 0.000311338, Final residual = 3.08724e-05, No Iterations 2
smoothSolver:  Solving for k, Initial residual = 0.00078794, Final residual = 7.85496e-05, No Iterations 2
ExecutionTime = 1.86 s  ClockTime = 3 s

forceCoeffs forceCoeffs_object write:
    Cm    = -0.302507
    Cd    = 1.58668
    Cl    = -0.518794
    Cl(f) = -0.561904
    Cl(r) = 0.0431096

Time = 71

smoothSolver:  Solving for Ux, Initial residual = 0.00549177, Final residual = 0.000511784, No Iterations 10
smoothSolver:  Solving for Uy, Initial residual = 0.0164128, Final residual = 0.00159754, No Iterations 9
GAMG:  Solving for p, Initial residual = 0.0125775, Final residual = 0.000125238, No Iterations 16
time step continuity errors : sum local = 7.72145e-05, global = 2.79632e-05, cumulative = 0.000168494
smoothSolver:  Solving for omega, Initial residual = 0.000314314, Final residual = 1.36877e-05, No Iterations 3
smoothSolver:  Solving for k, Initial residual = 0.000823003, Final residual = 8.14876e-05, No Iterations 2
ExecutionTime = 1.88 s  ClockTime = 3 s

forceCoeffs forceCoeffs_object write:
    Cm    = -0.32791
    Cd    = 1.60639
    Cl    = -0.500081
    Cl(f) = -0.57795
    Cl(r) = 0.0778699

Time = 72

smoothSolver:  Solving for Ux, Initial residual = 0.00507771, Final residual = 0.000472991, No Iterations 10
smoothSolver:  Solving for Uy, Initial residual = 0.017767, Final residual = 0.00155192, No Iterations 10
GAMG:  Solving for p, Initial residual = 0.0116358, Final residual = 0.000115377, No Iterations 17
time step continuity errors : sum local = 7.52908e-05, global = -3.40534e-05, cumulative = 0.00013444
smoothSolver:  Solving for omega, Initial residual = 0.000301774, Final residual = 1.36838e-05, No Iterations 3
smoothSolver:  Solving for k, Initial residual = 0.000852907, Final residual = 8.36571e-05, No Iterations 2
ExecutionTime = 1.91 s  ClockTime = 3 s

forceCoeffs forceCoeffs_object write:
    Cm    = -0.35674
    Cd    = 1.62131
    Cl    = -0.480372
    Cl(f) = -0.596926
    Cl(r) = 0.116554

Time = 73

smoothSolver:  Solving for Ux, Initial residual = 0.00479143, Final residual = 0.000436618, No Iterations 10
smoothSolver:  Solving for Uy, Initial residual = 0.0197408, Final residual = 0.00178005, No Iterations 10
GAMG:  Solving for p, Initial residual = 0.010884, Final residual = 0.000102701, No Iterations 17
time step continuity errors : sum local = 7.12366e-05, global = -3.22464e-05, cumulative = 0.000102194
smoothSolver:  Solving for omega, Initial residual = 0.000295778, Final residual = 1.31338e-05, No Iterations 3
smoothSolver:  Solving for k, Initial residual = 0.00088284, Final residual = 8.73493e-05, No Iterations 2
ExecutionTime = 1.94 s  ClockTime = 3 s

forceCoeffs forceCoeffs_object write:
    Cm    = -0.384192
    Cd    = 1.62817
    Cl    = -0.461907
    Cl(f) = -0.615145
    Cl(r) = 0.153238

Time = 74

smoothSolver:  Solving for Ux, Initial residual = 0.00462506, Final residual = 0.000408423, No Iterations 10
smoothSolver:  Solving for Uy, Initial residual = 0.0223566, Final residual = 0.00204366, No Iterations 10
GAMG:  Solving for p, Initial residual = 0.0102019, Final residual = 8.19683e-05, No Iterations 16
time step continuity errors : sum local = 6.033e-05, global = 2.3244e-05, cumulative = 0.000125438
smoothSolver:  Solving for omega, Initial residual = 0.00029408, Final residual = 1.35905e-05, No Iterations 3
smoothSolver:  Solving for k, Initial residual = 0.000893977, Final residual = 8.59022e-05, No Iterations 2
ExecutionTime = 1.96 s  ClockTime = 3 s

forceCoeffs forceCoeffs_object write:
    Cm    = -0.399426
    Cd    = 1.60702
    Cl    = -0.441127
    Cl(f) = -0.61999
    Cl(r) = 0.178863

Time = 75

smoothSolver:  Solving for Ux, Initial residual = 0.00454716, Final residual = 0.000397923, No Iterations 10
smoothSolver:  Solving for Uy, Initial residual = 0.0259082, Final residual = 0.00236568, No Iterations 10
GAMG:  Solving for p, Initial residual = 0.00971961, Final residual = 8.93131e-05, No Iterations 15
time step continuity errors : sum local = 6.88784e-05, global = -3.0196e-05, cumulative = 9.52418e-05
smoothSolver:  Solving for omega, Initial residual = 0.000289826, Final residual = 1.42703e-05, No Iterations 3
smoothSolver:  Solving for k, Initial residual = 0.000917519, Final residual = 8.73682e-05, No Iterations 2
ExecutionTime = 1.99 s  ClockTime = 3 s

forceCoeffs forceCoeffs_object write:
    Cm    = -0.397495
    Cd    = 1.54378
    Cl    = -0.413593
    Cl(f) = -0.604292
    Cl(r) = 0.190698

Time = 76

smoothSolver:  Solving for Ux, Initial residual = 0.00458249, Final residual = 0.000390653, No Iterations 10
smoothSolver:  Solving for Uy, Initial residual = 0.0305477, Final residual = 0.00276624, No Iterations 10
GAMG:  Solving for p, Initial residual = 0.00919606, Final residual = 8.74881e-05, No Iterations 16
time step continuity errors : sum local = 6.99169e-05, global = 3.35361e-05, cumulative = 0.000128778
smoothSolver:  Solving for omega, Initial residual = 0.00028871, Final residual = 1.24305e-05, No Iterations 3
smoothSolver:  Solving for k, Initial residual = 0.000931747, Final residual = 8.32711e-05, No Iterations 2
ExecutionTime = 2.01 s  ClockTime = 3 s

forceCoeffs forceCoeffs_object write:
    Cm    = -0.370208
    Cd    = 1.41873
    Cl    = -0.372461
    Cl(f) = -0.556439
    Cl(r) = 0.183978

Time = 77

smoothSolver:  Solving for Ux, Initial residual = 0.00466282, Final residual = 0.000454812, No Iterations 9
smoothSolver:  Solving for Uy, Initial residual = 0.0373881, Final residual = 0.00337081, No Iterations 10
GAMG:  Solving for p, Initial residual = 0.00901962, Final residual = 7.67816e-05, No Iterations 17
time step continuity errors : sum local = 6.23692e-05, global = -2.81668e-05, cumulative = 0.000100611
smoothSolver:  Solving for omega, Initial residual = 0.00028972, Final residual = 2.80003e-05, No Iterations 2
smoothSolver:  Solving for k, Initial residual = 0.000966798, Final residual = 8.23981e-05, No Iterations 2
ExecutionTime = 2.04 s  ClockTime = 4 s

forceCoeffs forceCoeffs_object write:
    Cm    = -0.322008
    Cd    = 1.24386
    Cl    = -0.319156
    Cl(f) = -0.481586
    Cl(r) = 0.16243

Time = 78

smoothSolver:  Solving for Ux, Initial residual = 0.00491636, Final residual = 0.000479531, No Iterations 9
smoothSolver:  Solving for Uy, Initial residual = 0.0473045, Final residual = 0.00425335, No Iterations 10
GAMG:  Solving for p, Initial residual = 0.00873055, Final residual = 7.93285e-05, No Iterations 17
time step continuity errors : sum local = 6.49677e-05, global = -2.98612e-05, cumulative = 7.07499e-05
smoothSolver:  Solving for omega, Initial residual = 0.000311905, Final residual = 2.83371e-05, No Iterations 2
smoothSolver:  Solving for k, Initial residual = 0.00101437, Final residual = 8.70476e-05, No Iterations 2
ExecutionTime = 2.07 s  ClockTime = 4 s

forceCoeffs forceCoeffs_object write:
    Cm    = -0.258892
    Cd    = 1.03625
    Cl    = -0.25688
    Cl(f) = -0.387332
    Cl(r) = 0.130452

Time = 79

smoothSolver:  Solving for Ux, Initial residual = 0.00529568, Final residual = 0.000469746, No Iterations 10
[...]
smoothSolver:  Solving for omega, Initial residual = 0.000218513, Final residual = 1.04434e-05, No Iterations 3
smoothSolver:  Solving for k, Initial residual = 0.000862258, Final residual = 4.04461e-05, No Iterations 3
ExecutionTime = 4.18 s  ClockTime = 6 s

forceCoeffs forceCoeffs_object write:
    Cm    = 0.0287271
    Cd    = 0.593267
    Cl    = -0.23705
    Cl(f) = -0.0897977
    Cl(r) = -0.147252

Time = 161

smoothSolver:  Solving for Ux, Initial residual = 0.00798851, Final residual = 0.000795665, No Iterations 9
smoothSolver:  Solving for Uy, Initial residual = 0.0172032, Final residual = 0.00154513, No Iterations 9
GAMG:  Solving for p, Initial residual = 0.011621, Final residual = 0.00011585, No Iterations 11
time step continuity errors : sum local = 5.17047e-05, global = 1.58069e-05, cumulative = -2.4971e-07
smoothSolver:  Solving for omega, Initial residual = 0.000226723, Final residual = 1.03338e-05, No Iterations 3
smoothSolver:  Solving for k, Initial residual = 0.000838252, Final residual = 3.82651e-05, No Iterations 3
ExecutionTime = 4.21 s  ClockTime = 6 s

forceCoeffs forceCoeffs_object write:
    Cm    = 0.0497813
    Cd    = 0.571765
    Cl    = -0.230792
    Cl(f) = -0.0656149
    Cl(r) = -0.165178

Time = 162

smoothSolver:  Solving for Ux, Initial residual = 0.00805621, Final residual = 0.000799664, No Iterations 9
smoothSolver:  Solving for Uy, Initial residual = 0.0193793, Final residual = 0.00180571, No Iterations 9
GAMG:  Solving for p, Initial residual = 0.010799, Final residual = 0.000104334, No Iterations 13
time step continuity errors : sum local = 4.93124e-05, global = -1.86156e-05, cumulative = -1.88653e-05
smoothSolver:  Solving for omega, Initial residual = 0.000231928, Final residual = 1.02476e-05, No Iterations 3
smoothSolver:  Solving for k, Initial residual = 0.000823028, Final residual = 3.72835e-05, No Iterations 3
ExecutionTime = 4.23 s  ClockTime = 6 s

forceCoeffs forceCoeffs_object write:
    Cm    = 0.0635243
    Cd    = 0.566769
    Cl    = -0.229325
    Cl(f) = -0.051138
    Cl(r) = -0.178187

Time = 163

smoothSolver:  Solving for Ux, Initial residual = 0.00815804, Final residual = 0.000785894, No Iterations 9
smoothSolver:  Solving for Uy, Initial residual = 0.0217535, Final residual = 0.0020687, No Iterations 9
GAMG:  Solving for p, Initial residual = 0.0104788, Final residual = 8.73036e-05, No Iterations 14
time step continuity errors : sum local = 4.27067e-05, global = 1.72036e-05, cumulative = -1.66164e-06
smoothSolver:  Solving for omega, Initial residual = 0.000237211, Final residual = 2.3633e-05, No Iterations 2
smoothSolver:  Solving for k, Initial residual = 0.000819377, Final residual = 3.77481e-05, No Iterations 3
ExecutionTime = 4.26 s  ClockTime = 6 s

forceCoeffs forceCoeffs_object write:
    Cm    = 0.0701794
    Cd    = 0.577732
    Cl    = -0.232966
    Cl(f) = -0.0463035
    Cl(r) = -0.186662

Time = 164

smoothSolver:  Solving for Ux, Initial residual = 0.00823809, Final residual = 0.000755022, No Iterations 9
smoothSolver:  Solving for Uy, Initial residual = 0.0237596, Final residual = 0.0022787, No Iterations 9
GAMG:  Solving for p, Initial residual = 0.0104618, Final residual = 9.60959e-05, No Iterations 14
time step continuity errors : sum local = 4.7588e-05, global = 1.85313e-05, cumulative = 1.68697e-05
smoothSolver:  Solving for omega, Initial residual = 0.000244479, Final residual = 2.33268e-05, No Iterations 2
smoothSolver:  Solving for k, Initial residual = 0.000825824, Final residual = 3.70799e-05, No Iterations 3
ExecutionTime = 4.28 s  ClockTime = 6 s

forceCoeffs forceCoeffs_object write:
    Cm    = 0.0696092
    Cd    = 0.602404
    Cl    = -0.240857
    Cl(f) = -0.0508195
    Cl(r) = -0.190038

Time = 165

smoothSolver:  Solving for Ux, Initial residual = 0.00825487, Final residual = 0.00071722, No Iterations 9
smoothSolver:  Solving for Uy, Initial residual = 0.0249465, Final residual = 0.00239689, No Iterations 9
GAMG:  Solving for p, Initial residual = 0.010541, Final residual = 0.000100862, No Iterations 14
time step continuity errors : sum local = 4.97621e-05, global = 1.80454e-05, cumulative = 3.4915e-05
smoothSolver:  Solving for omega, Initial residual = 0.000243821, Final residual = 2.35245e-05, No Iterations 2
smoothSolver:  Solving for k, Initial residual = 0.00082135, Final residual = 3.55323e-05, No Iterations 3
ExecutionTime = 4.3 s  ClockTime = 6 s

forceCoeffs forceCoeffs_object write:
    Cm    = 0.0618657
    Cd    = 0.6414
    Cl    = -0.253067
    Cl(f) = -0.0646676
    Cl(r) = -0.188399

Time = 166

smoothSolver:  Solving for Ux, Initial residual = 0.00826029, Final residual = 0.000817685, No Iterations 8
smoothSolver:  Solving for Uy, Initial residual = 0.0249179, Final residual = 0.0024051, No Iterations 9
GAMG:  Solving for p, Initial residual = 0.0106144, Final residual = 0.000105689, No Iterations 14
time step continuity errors : sum local = 5.14925e-05, global = 1.86519e-05, cumulative = 5.35669e-05
smoothSolver:  Solving for omega, Initial residual = 0.000247916, Final residual = 2.3437e-05, No Iterations 2
smoothSolver:  Solving for k, Initial residual = 0.000822827, Final residual = 3.46149e-05, No Iterations 3
ExecutionTime = 4.33 s  ClockTime = 6 s

forceCoeffs forceCoeffs_object write:
    Cm    = 0.0485063
    Cd    = 0.689766
    Cl    = -0.268198
    Cl(f) = -0.0855926
    Cl(r) = -0.182605

Time = 167

smoothSolver:  Solving for Ux, Initial residual = 0.00825605, Final residual = 0.000798374, No Iterations 8
smoothSolver:  Solving for Uy, Initial residual = 0.0236465, Final residual = 0.00228992, No Iterations 9
GAMG:  Solving for p, Initial residual = 0.0108175, Final residual = 9.18184e-05, No Iterations 15
time step continuity errors : sum local = 4.37541e-05, global = -1.74707e-05, cumulative = 3.60963e-05
smoothSolver:  Solving for omega, Initial residual = 0.000241666, Final residual = 1.02007e-05, No Iterations 3
smoothSolver:  Solving for k, Initial residual = 0.00082455, Final residual = 3.28891e-05, No Iterations 3
ExecutionTime = 4.35 s  ClockTime = 6 s

forceCoeffs forceCoeffs_object write:
    Cm    = 0.0286164
    Cd    = 0.750054
    Cl    = -0.286803
    Cl(f) = -0.114785
    Cl(r) = -0.172018

Time = 168

smoothSolver:  Solving for Ux, Initial residual = 0.00823994, Final residual = 0.000796145, No Iterations 8
smoothSolver:  Solving for Uy, Initial residual = 0.0216952, Final residual = 0.00209517, No Iterations 9
GAMG:  Solving for p, Initial residual = 0.0111367, Final residual = 9.77892e-05, No Iterations 15
time step continuity errors : sum local = 4.55678e-05, global = -1.84608e-05, cumulative = 1.76354e-05
smoothSolver:  Solving for omega, Initial residual = 0.000235757, Final residual = 2.32088e-05, No Iterations 2
smoothSolver:  Solving for k, Initial residual = 0.000822077, Final residual = 8.08244e-05, No Iterations 2
ExecutionTime = 4.38 s  ClockTime = 6 s

forceCoeffs forceCoeffs_object write:
    Cm    = 0.00430626
    Cd    = 0.817761
    Cl    = -0.307766
    Cl(f) = -0.149577
    Cl(r) = -0.158189

Time = 169

smoothSolver:  Solving for Ux, Initial residual = 0.00820356, Final residual = 0.000804412, No Iterations 8
smoothSolver:  Solving for Uy, Initial residual = 0.0194356, Final residual = 0.00185752, No Iterations 9
GAMG:  Solving for p, Initial residual = 0.0114161, Final residual = 0.000101513, No Iterations 15
time step continuity errors : sum local = 4.6092e-05, global = -1.83903e-05, cumulative = -7.54837e-07
smoothSolver:  Solving for omega, Initial residual = 0.000227166, Final residual = 9.84624e-06, No Iterations 3
smoothSolver:  Solving for k, Initial residual = 0.000808012, Final residual = 7.8422e-05, No Iterations 2
ExecutionTime = 4.4 s  ClockTime = 6 s

forceCoeffs forceCoeffs_object write:
    Cm    = -0.0225889
    Cd    = 0.888327
    Cl    = -0.330155
    Cl(f) = -0.187666
    Cl(r) = -0.142488

Time = 170

smoothSolver:  Solving for Ux, Initial residual = 0.00812823, Final residual = 0.000678431, No Iterations 9
smoothSolver:  Solving for Uy, Initial residual = 0.0172046, Final residual = 0.00162299, No Iterations 9
GAMG:  Solving for p, Initial residual = 0.0118642, Final residual = 0.000104534, No Iterations 15
time step continuity errors : sum local = 4.57022e-05, global = -1.76864e-05, cumulative = -1.84412e-05
smoothSolver:  Solving for omega, Initial residual = 0.000219501, Final residual = 9.80196e-06, No Iterations 3
smoothSolver:  Solving for k, Initial residual = 0.000810684, Final residual = 7.85654e-05, No Iterations 2
ExecutionTime = 4.43 s  ClockTime = 6 s

forceCoeffs forceCoeffs_object write:
    Cm    = -0.0520294
    Cd    = 0.9595
    Cl    = -0.353243
    Cl(f) = -0.228651
    Cl(r) = -0.124592

Time = 171

smoothSolver:  Solving for Ux, Initial residual = 0.00796915, Final residual = 0.000667728, No Iterations 9
smoothSolver:  Solving for Uy, Initial residual = 0.0151849, Final residual = 0.0014174, No Iterations 9
GAMG:  Solving for p, Initial residual = 0.0122493, Final residual = 0.000120722, No Iterations 14
time step continuity errors : sum local = 5.03978e-05, global = 2.18675e-05, cumulative = 3.42628e-06
smoothSolver:  Solving for omega, Initial residual = 0.000216947, Final residual = 9.85809e-06, No Iterations 3
smoothSolver:  Solving for k, Initial residual = 0.000812722, Final residual = 3.1439e-05, No Iterations 3
ExecutionTime = 4.45 s  ClockTime = 6 s

forceCoeffs forceCoeffs_object write:
    Cm    = -0.0826416
    Cd    = 1.02905
    Cl    = -0.376561
    Cl(f) = -0.270922
    Cl(r) = -0.105639

Time = 172

smoothSolver:  Solving for Ux, Initial residual = 0.00769674, Final residual = 0.000641709, No Iterations 9
smoothSolver:  Solving for Uy, Initial residual = 0.0135001, Final residual = 0.00124474, No Iterations 9
GAMG:  Solving for p, Initial residual = 0.0128344, Final residual = 0.000121524, No Iterations 14
time step continuity errors : sum local = 4.75246e-05, global = 2.05371e-05, cumulative = 2.39634e-05
smoothSolver:  Solving for omega, Initial residual = 0.00021337, Final residual = 9.92103e-06, No Iterations 3
smoothSolver:  Solving for k, Initial residual = 0.000808827, Final residual = 3.18117e-05, No Iterations 3
ExecutionTime = 4.48 s  ClockTime = 6 s

forceCoeffs forceCoeffs_object write:
    Cm    = -0.114326
    Cd    = 1.09471
    Cl    = -0.398911
    Cl(f) = -0.313782
    Cl(r) = -0.0851299

Time = 173

smoothSolver:  Solving for Ux, Initial residual = 0.00736376, Final residual = 0.000734455, No Iterations 8
smoothSolver:  Solving for Uy, Initial residual = 0.0121803, Final residual = 0.00111818, No Iterations 9
GAMG:  Solving for p, Initial residual = 0.0133787, Final residual = 0.000119812, No Iterations 14
time step continuity errors : sum local = 4.34791e-05, global = 1.89527e-05, cumulative = 4.29161e-05
smoothSolver:  Solving for omega, Initial residual = 0.000211646, Final residual = 9.84806e-06, No Iterations 3
smoothSolver:  Solving for k, Initial residual = 0.000802565, Final residual = 3.21799e-05, No Iterations 3
ExecutionTime = 4.5 s  ClockTime = 6 s

forceCoeffs forceCoeffs_object write:
    Cm    = -0.146377
    Cd    = 1.15598
    Cl    = -0.419437
    Cl(f) = -0.356096
    Cl(r) = -0.0633411

Time = 174

smoothSolver:  Solving for Ux, Initial residual = 0.00699542, Final residual = 0.000691434, No Iterations 8
smoothSolver:  Solving for Uy, Initial residual = 0.0111924, Final residual = 0.0010237, No Iterations 9
GAMG:  Solving for p, Initial residual = 0.0139889, Final residual = 0.000130926, No Iterations 12
time step continuity errors : sum local = 4.38687e-05, global = 1.76352e-05, cumulative = 6.05513e-05
smoothSolver:  Solving for omega, Initial residual = 0.000208497, Final residual = 9.66694e-06, No Iterations 3
smoothSolver:  Solving for k, Initial residual = 0.00078058, Final residual = 3.23275e-05, No Iterations 3
ExecutionTime = 4.53 s  ClockTime = 6 s

forceCoeffs forceCoeffs_object write:
    Cm    = -0.178339
    Cd    = 1.2115
    Cl    = -0.437077
    Cl(f) = -0.396878
    Cl(r) = -0.0401995

Time = 175

smoothSolver:  Solving for Ux, Initial residual = 0.00665953, Final residual = 0.000644902, No Iterations 8
smoothSolver:  Solving for Uy, Initial residual = 0.0104328, Final residual = 0.000946189, No Iterations 9
GAMG:  Solving for p, Initial residual = 0.0144399, Final residual = 0.00013757, No Iterations 13
time step continuity errors : sum local = 4.34129e-05, global = 1.56556e-05, cumulative = 7.62069e-05
smoothSolver:  Solving for omega, Initial residual = 0.000203173, Final residual = 9.53657e-06, No Iterations 3
smoothSolver:  Solving for k, Initial residual = 0.000761348, Final residual = 3.1115e-05, No Iterations 3
ExecutionTime = 4.55 s  ClockTime = 6 s

forceCoeffs forceCoeffs_object write:
    Cm    = -0.209417
    Cd    = 1.26088
    Cl    = -0.451353
    Cl(f) = -0.435094
    Cl(r) = -0.0162595

Time = 176

smoothSolver:  Solving for Ux, Initial residual = 0.0063364, Final residual = 0.000598266, No Iterations 8
smoothSolver:  Solving for Uy, Initial residual = 0.0098386, Final residual = 0.000875477, No Iterations 9
GAMG:  Solving for p, Initial residual = 0.0145093, Final residual = 0.000140558, No Iterations 13
time step continuity errors : sum local = 4.28614e-05, global = 1.42126e-05, cumulative = 9.04196e-05
smoothSolver:  Solving for omega, Initial residual = 0.000203222, Final residual = 9.91739e-06, No Iterations 3
smoothSolver:  Solving for k, Initial residual = 0.000731805, Final residual = 2.97866e-05, No Iterations 3
ExecutionTime = 4.57 s  ClockTime = 6 s

forceCoeffs forceCoeffs_object write:
    Cm    = -0.238098
    Cd    = 1.30118
    Cl    = -0.461039
    Cl(f) = -0.468617
    Cl(r) = 0.00757832

Time = 177

smoothSolver:  Solving for Ux, Initial residual = 0.00605253, Final residual = 0.000555012, No Iterations 8
smoothSolver:  Solving for Uy, Initial residual = 0.00936208, Final residual = 0.000816409, No Iterations 9
GAMG:  Solving for p, Initial residual = 0.0144035, Final residual = 0.000112856, No Iterations 14
time step continuity errors : sum local = 3.41928e-05, global = -1.14546e-05, cumulative = 7.8965e-05
smoothSolver:  Solving for omega, Initial residual = 0.00020047, Final residual = 1.00211e-05, No Iterations 3
smoothSolver:  Solving for k, Initial residual = 0.000700084, Final residual = 3.05124e-05, No Iterations 3
ExecutionTime = 4.6 s  ClockTime = 6 s

forceCoeffs forceCoeffs_object write:
    Cm    = -0.263298
    Cd    = 1.3316
    Cl    = -0.465996
    Cl(f) = -0.496296
    Cl(r) = 0.0303001

Time = 178

smoothSolver:  Solving for Ux, Initial residual = 0.00576976, Final residual = 0.000522632, No Iterations 8
smoothSolver:  Solving for Uy, Initial residual = 0.00903438, Final residual = 0.00077116, No Iterations 9
GAMG:  Solving for p, Initial residual = 0.0141204, Final residual = 0.000123641, No Iterations 14
time step continuity errors : sum local = 3.81577e-05, global = -1.35675e-05, cumulative = 6.53975e-05
smoothSolver:  Solving for omega, Initial residual = 0.000200304, Final residual = 1.00869e-05, No Iterations 3
smoothSolver:  Solving for k, Initial residual = 0.000674544, Final residual = 3.07931e-05, No Iterations 3
ExecutionTime = 4.62 s  ClockTime = 6 s

forceCoeffs forceCoeffs_object write:
    Cm    = -0.282587
    Cd    = 1.3478
    Cl    = -0.465098
    Cl(f) = -0.515136
    Cl(r) = 0.0500382

Time = 179

smoothSolver:  Solving for Ux, Initial residual = 0.00554325, Final residual = 0.000510712, No Iterations 8
smoothSolver:  Solving for Uy, Initial residual = 0.00879676, Final residual = 0.000747377, No Iterations 9
GAMG:  Solving for p, Initial residual = 0.0136, Final residual = 0.000133249, No Iterations 14
time step continuity errors : sum local = 4.25457e-05, global = -1.62265e-05, cumulative = 4.91709e-05
smoothSolver:  Solving for omega, Initial residual = 0.000196733, Final residual = 1.00834e-05, No Iterations 3
smoothSolver:  Solving for k, Initial residual = 0.000654044, Final residual = 3.07769e-05, No Iterations 3
ExecutionTime = 4.65 s  ClockTime = 6 s

forceCoeffs forceCoeffs_object write:
    Cm    = -0.293962
    Cd    = 1.34775
    Cl    = -0.458263
    Cl(f) = -0.523094
    Cl(r) = 0.0648308

Time = 180

smoothSolver:  Solving for Ux, Initial residual = 0.00539653, Final residual = 0.00051794, No Iterations 8
smoothSolver:  Solving for Uy, Initial residual = 0.00868669, Final residual = 0.0007429, No Iterations 9
GAMG:  Solving for p, Initial residual = 0.0126395, Final residual = 0.000117457, No Iterations 15
time step continuity errors : sum local = 3.94518e-05, global = 1.28569e-05, cumulative = 6.20278e-05
smoothSolver:  Solving for omega, Initial residual = 0.000195964, Final residual = 1.01208e-05, No Iterations 3
smoothSolver:  Solving for k, Initial residual = 0.000636813, Final residual = 3.04772e-05, No Iterations 3
ExecutionTime = 4.67 s  ClockTime = 6 s

forceCoeffs forceCoeffs_object write:
    Cm    = -0.296348
    Cd    = 1.3287
    Cl    = -0.444602
    Cl(f) = -0.518649
    Cl(r) = 0.0740468

Time = 181

smoothSolver:  Solving for Ux, Initial residual = 0.00528784, Final residual = 0.000446081, No Iterations 9
smoothSolver:  Solving for Uy, Initial residual = 0.00875578, Final residual = 0.000758776, No Iterations 9
GAMG:  Solving for p, Initial residual = 0.011555, Final residual = 0.000115459, No Iterations 15
time step continuity errors : sum local = 4.13478e-05, global = 1.3878e-05, cumulative = 7.59058e-05
smoothSolver:  Solving for omega, Initial residual = 0.000195781, Final residual = 1.00794e-05, No Iterations 3
smoothSolver:  Solving for k, Initial residual = 0.000620157, Final residual = 3.04114e-05, No Iterations 3
ExecutionTime = 4.7 s  ClockTime = 6 s

forceCoeffs forceCoeffs_object write:
    Cm    = -0.28967
    Cd    = 1.2924
    Cl    = -0.424999
    Cl(f) = -0.502169
    Cl(r) = 0.0771704

Time = 182

smoothSolver:  Solving for Ux, Initial residual = 0.00515014, Final residual = 0.000456614, No Iterations 9
smoothSolver:  Solving for Uy, Initial residual = 0.00901178, Final residual = 0.000797342, No Iterations 9
GAMG:  Solving for p, Initial residual = 0.0105647, Final residual = 9.80344e-05, No Iterations 16
time step continuity errors : sum local = 3.77489e-05, global = -1.48372e-05, cumulative = 6.10686e-05
smoothSolver:  Solving for omega, Initial residual = 0.00019486, Final residual = 9.80283e-06, No Iterations 3
smoothSolver:  Solving for k, Initial residual = 0.000602256, Final residual = 2.93604e-05, No Iterations 3
ExecutionTime = 4.72 s  ClockTime = 6 s

forceCoeffs forceCoeffs_object write:
    Cm    = -0.276173
    Cd    = 1.24534
    Cl    = -0.401557
    Cl(f) = -0.476951
    Cl(r) = 0.0753939

Time = 183

smoothSolver:  Solving for Ux, Initial residual = 0.00500248, Final residual = 0.000463407, No Iterations 9
smoothSolver:  Solving for Uy, Initial residual = 0.00938878, Final residual = 0.000856031, No Iterations 9
GAMG:  Solving for p, Initial residual = 0.00941745, Final residual = 9.24508e-05, No Iterations 16
time step continuity errors : sum local = 3.87023e-05, global = -1.47681e-05, cumulative = 4.63005e-05
smoothSolver:  Solving for omega, Initial residual = 0.000193725, Final residual = 9.94042e-06, No Iterations 3
smoothSolver:  Solving for k, Initial residual = 0.000577649, Final residual = 2.82651e-05, No Iterations 3
ExecutionTime = 4.75 s  ClockTime = 6 s


SIMPLE solution converged in 183 iterations

forceCoeffs forceCoeffs_object write:
    Cm    = -0.255951
    Cd    = 1.1886
    Cl    = -0.375034
    Cl(f) = -0.443468
    Cl(r) = 0.0684343

yPlus yPlus write:
    writing object yPlus
    patch suction_side y+ : min = 20.65, max = 40.2769, average = 29.8651
    patch pressure_side y+ : min = 4.00601, max = 55.7985, average = 28.7564
    patch trailing_edge y+ : min = 148.574, max = 166.318, average = 157.446

End

