/*---------------------------------------------------------------------------*\
  =========                 |
  \\      /  F ield         | OpenFOAM: The Open Source CFD Toolbox
   \\    /   O peration     | Website:  https://openfoam.org
    \\  /    A nd           | Version:  7
     \\/     M anipulation  |
\*---------------------------------------------------------------------------*/
Build  : 7-3bcbaf946ae9
Exec   : pisoFoam
Date   : Aug 06 2022
Time   : 00:00:28
Host   : "Lubuntu"
PID    : 94438
I/O    : uncollated
Case   : /home/ensm_student/Documents/CFD/Rechnerubung/Week10/karman_street
nProcs : 1
sigFpe : Enabling floating point exception trapping (FOAM_SIGFPE).
fileModificationChecking : Monitoring run-time modified files using timeStampMaster (fileModificationSkew 10)
allowSystemOperations : Allowing user-supplied system call operations

// * * * * * * * * * * * * * * * * * * * * * * * * * * * * * * * * * * * * * //
Create time

Create mesh for time = 0

Reading field p

Reading field U

Reading/calculating face flux field phi

Selecting incompressible transport model Newtonian
Selecting turbulence model type laminar
Selecting laminar stress model Stokes
No MRF models present

No finite volume options present

Starting time loop

--> FOAM Warning : 
    From function void Foam::timeControl::read(const Foam::dictionary&)
    in file db/functionObjects/timeControl/timeControl.C at line 89
    Reading "/home/ensm_student/Documents/CFD/Rechnerubung/Week10/karman_street/system/controlDict.functions.forceCoeffs_object" from line 20 to line 40
    Using deprecated 'outputControl'
    Please use 'writeControl' with 'writeInterval'
forces forceCoeffs_object:
    Not including porosity effects
forceCoeffs forceCoeffs_object:
    Not including porosity effects
--> FOAM Warning : 
    From function void Foam::timeControl::read(const Foam::dictionary&)
    in file db/functionObjects/timeControl/timeControl.C at line 89
    Reading "/home/ensm_student/Documents/CFD/Rechnerubung/Week10/karman_street/system/controlDict.functions.residuals" from line 19 to line 31
    Using deprecated 'outputControl'
    Please use 'writeControl' with 'writeInterval'
Time = 0.2

Courant Number mean: 1.52179 max: 44.2718
smoothSolver:  Solving for Ux, Initial residual = 1, Final residual = 8.48981e-06, No Iterations 23
smoothSolver:  Solving for Uy, Initial residual = 1, Final residual = 6.66589e-06, No Iterations 25
GAMG:  Solving for p, Initial residual = 1, Final residual = 0.0624457, No Iterations 5
time step continuity errors : sum local = 0.000192962, global = -9.50158e-06, cumulative = -9.50158e-06
GAMG:  Solving for p, Initial residual = 0.109663, Final residual = 6.86074e-07, No Iterations 21
time step continuity errors : sum local = 2.57195e-08, global = 1.95706e-09, cumulative = -9.49963e-06
ExecutionTime = 0.13 s  ClockTime = 0 s

forceCoeffs forceCoeffs_object write:
    Cm    = -0.00580732
    Cd    = 0.0553078
    Cl    = 9.49622e-22
    Cl(f) = -0.00580732
    Cl(r) = 0.00580732

Time = 0.4

Courant Number mean: 1.5512 max: 6.50565
smoothSolver:  Solving for Ux, Initial residual = 0.142365, Final residual = 9.08247e-06, No Iterations 18
smoothSolver:  Solving for Uy, Initial residual = 0.373482, Final residual = 8.56453e-06, No Iterations 21
GAMG:  Solving for p, Initial residual = 0.332591, Final residual = 0.0211633, No Iterations 4
time step continuity errors : sum local = 0.000545953, global = 2.15879e-05, cumulative = 1.20883e-05
GAMG:  Solving for p, Initial residual = 0.622552, Final residual = 8.11158e-07, No Iterations 23
time step continuity errors : sum local = 1.00568e-08, global = 5.67346e-10, cumulative = 1.20889e-05
ExecutionTime = 0.19 s  ClockTime = 0 s

forceCoeffs forceCoeffs_object write:
    Cm    = 0.00346527
    Cd    = -0.0330026
    Cl    = -1.93834e-20
    Cl(f) = 0.00346527
    Cl(r) = -0.00346527

Time = 0.6

Courant Number mean: 1.55217 max: 6.84461
smoothSolver:  Solving for Ux, Initial residual = 0.0622472, Final residual = 8.87901e-06, No Iterations 21
smoothSolver:  Solving for Uy, Initial residual = 0.211649, Final residual = 7.89918e-06, No Iterations 26
GAMG:  Solving for p, Initial residual = 0.852784, Final residual = 0.0794371, No Iterations 2
time step continuity errors : sum local = 0.000981249, global = -1.44823e-05, cumulative = -2.39339e-06
GAMG:  Solving for p, Initial residual = 0.669849, Final residual = 5.96456e-07, No Iterations 23
time step continuity errors : sum local = 8.97959e-09, global = -5.95431e-10, cumulative = -2.39398e-06
ExecutionTime = 0.23 s  ClockTime = 0 s

forceCoeffs forceCoeffs_object write:
    Cm    = 0.0024091
    Cd    = -0.0229438
    Cl    = -3.46739e-19
    Cl(f) = 0.0024091
    Cl(r) = -0.0024091

Time = 0.8

Courant Number mean: 1.55201 max: 7.70156
smoothSolver:  Solving for Ux, Initial residual = 0.0726903, Final residual = 9.69796e-06, No Iterations 24
smoothSolver:  Solving for Uy, Initial residual = 0.235028, Final residual = 8.74035e-06, No Iterations 31
GAMG:  Solving for p, Initial residual = 0.530812, Final residual = 0.0433349, No Iterations 2
time step continuity errors : sum local = 0.000843429, global = 2.03515e-05, cumulative = 1.79575e-05
GAMG:  Solving for p, Initial residual = 0.482273, Final residual = 6.02765e-07, No Iterations 22
time step continuity errors : sum local = 1.22274e-08, global = 9.43855e-10, cumulative = 1.79585e-05
ExecutionTime = 0.27 s  ClockTime = 0 s

forceCoeffs forceCoeffs_object write:
    Cm    = 0.00234321
    Cd    = -0.0223163
    Cl    = -4.37103e-19
    Cl(f) = 0.00234321
    Cl(r) = -0.00234321

Time = 1

Courant Number mean: 1.5527 max: 8.47161
smoothSolver:  Solving for Ux, Initial residual = 0.0531159, Final residual = 9.56677e-06, No Iterations 29
smoothSolver:  Solving for Uy, Initial residual = 0.215944, Final residual = 8.6561e-06, No Iterations 37
GAMG:  Solving for p, Initial residual = 0.789488, Final residual = 0.0619959, No Iterations 2
time step continuity errors : sum local = 0.000766686, global = -1.81423e-05, cumulative = -1.83775e-07
GAMG:  Solving for p, Initial residual = 0.727907, Final residual = 4.95938e-07, No Iterations 23
time step continuity errors : sum local = 6.49207e-09, global = -4.65466e-10, cumulative = -1.8424e-07
ExecutionTime = 0.41 s  ClockTime = 0 s

forceCoeffs forceCoeffs_object write:
    Cm    = 0.00188839
    Cd    = -0.0179847
    Cl    = -3.80548e-19
    Cl(f) = 0.00188839
    Cl(r) = -0.00188839

yPlus yPlus write:
    writing object yPlus
    patch atmosphere y+ : min = 0.638249, max = 1.95907, average = 1.19553
    patch walls y+ : min = 0.0626201, max = 0.253103, average = 0.116947
    patch cylinder y+ : min = 0.0186588, max = 0.155709, average = 0.085253

Time = 1.2

Courant Number mean: 1.55318 max: 9.07816
smoothSolver:  Solving for Ux, Initial residual = 0.0605313, Final residual = 8.48273e-06, No Iterations 37
smoothSolver:  Solving for Uy, Initial residual = 0.21628, Final residual = 8.65231e-06, No Iterations 45
GAMG:  Solving for p, Initial residual = 0.541703, Final residual = 0.0455982, No Iterations 2
time step continuity errors : sum local = 0.000821809, global = 2.16093e-05, cumulative = 2.14251e-05
GAMG:  Solving for p, Initial residual = 0.495187, Final residual = 5.85087e-07, No Iterations 22
time step continuity errors : sum local = 1.12682e-08, global = 8.77707e-10, cumulative = 2.14259e-05
ExecutionTime = 0.46 s  ClockTime = 0 s

forceCoeffs forceCoeffs_object write:
    Cm    = 0.00147679
    Cd    = -0.0140647
    Cl    = -2.97303e-19
    Cl(f) = 0.00147679
    Cl(r) = -0.00147679

Time = 1.4

Courant Number mean: 1.55387 max: 9.50065
smoothSolver:  Solving for Ux, Initial residual = 0.0481129, Final residual = 8.35728e-06, No Iterations 47
smoothSolver:  Solving for Uy, Initial residual = 0.211948, Final residual = 9.6385e-06, No Iterations 55
GAMG:  Solving for p, Initial residual = 0.72917, Final residual = 0.0572989, No Iterations 2
time step continuity errors : sum local = 0.000748852, global = -2.07361e-05, cumulative = 6.89821e-07
GAMG:  Solving for p, Initial residual = 0.757686, Final residual = 9.78668e-07, No Iterations 22
time step continuity errors : sum local = 1.19186e-08, global = -4.86287e-10, cumulative = 6.89335e-07
ExecutionTime = 0.51 s  ClockTime = 0 s

forceCoeffs forceCoeffs_object write:
    Cm    = 0.000801655
    Cd    = -0.00763481
    Cl    = -2.84031e-19
    Cl(f) = 0.000801655
    Cl(r) = -0.000801655

Time = 1.6

Courant Number mean: 1.55445 max: 9.62841
smoothSolver:  Solving for Ux, Initial residual = 0.0547828, Final residual = 9.71451e-06, No Iterations 52
smoothSolver:  Solving for Uy, Initial residual = 0.209301, Final residual = 9.21522e-06, No Iterations 62
GAMG:  Solving for p, Initial residual = 0.531884, Final residual = 0.0451631, No Iterations 2
time step continuity errors : sum local = 0.000784725, global = 2.29682e-05, cumulative = 2.36575e-05
GAMG:  Solving for p, Initial residual = 0.490924, Final residual = 4.86792e-07, No Iterations 22
time step continuity errors : sum local = 8.89234e-09, global = 6.73385e-10, cumulative = 2.36582e-05
ExecutionTime = 0.57 s  ClockTime = 0 s

forceCoeffs forceCoeffs_object write:
    Cm    = 0.000384015
    Cd    = -0.00365728
    Cl    = -1.94799e-19
    Cl(f) = 0.000384015
    Cl(r) = -0.000384015

Time = 1.8

Courant Number mean: 1.55514 max: 9.57666
smoothSolver:  Solving for Ux, Initial residual = 0.0440199, Final residual = 9.79993e-06, No Iterations 52
smoothSolver:  Solving for Uy, Initial residual = 0.197444, Final residual = 9.97809e-06, No Iterations 62
GAMG:  Solving for p, Initial residual = 0.687455, Final residual = 0.0544049, No Iterations 2
time step continuity errors : sum local = 0.000708983, global = -2.24246e-05, cumulative = 1.23362e-06
GAMG:  Solving for p, Initial residual = 0.781743, Final residual = 8.63406e-07, No Iterations 21
time step continuity errors : sum local = 9.49643e-09, global = -7.56454e-10, cumulative = 1.23287e-06
ExecutionTime = 0.62 s  ClockTime = 0 s

forceCoeffs forceCoeffs_object write:
    Cm    = -0.000251629
    Cd    = 0.00239647
    Cl    = -1.91395e-19
    Cl(f) = -0.000251629
    Cl(r) = 0.000251629

Time = 2

Courant Number mean: 1.55582 max: 9.37896
smoothSolver:  Solving for Ux, Initial residual = 0.0489331, Final residual = 9.39792e-06, No Iterations 47
smoothSolver:  Solving for Uy, Initial residual = 0.190091, Final residual = 9.13034e-06, No Iterations 57
GAMG:  Solving for p, Initial residual = 0.521903, Final residual = 0.0442536, No Iterations 2
time step continuity errors : sum local = 0.00073605, global = 2.40495e-05, cumulative = 2.52823e-05
GAMG:  Solving for p, Initial residual = 0.483669, Final residual = 9.5317e-07, No Iterations 20
time step continuity errors : sum local = 1.65681e-08, global = 1.31785e-09, cumulative = 2.52837e-05
ExecutionTime = 0.76 s  ClockTime = 0 s

forceCoeffs forceCoeffs_object write:
    Cm    = -0.000482466
    Cd    = 0.00459491
    Cl    = -1.13576e-19
    Cl(f) = -0.000482466
    Cl(r) = 0.000482466

yPlus yPlus write:
    writing object yPlus
    patch atmosphere y+ : min = 0.521286, max = 1.95921, average = 0.980371
    patch walls y+ : min = 0.0529262, max = 0.253104, average = 0.0990838
    patch cylinder y+ : min = 0.0179911, max = 0.160804, average = 0.0850061

Time = 2.2

Courant Number mean: 1.55667 max: 9.18011
smoothSolver:  Solving for Ux, Initial residual = 0.0399013, Final residual = 9.75117e-06, No Iterations 42
smoothSolver:  Solving for Uy, Initial residual = 0.17749, Final residual = 8.16403e-06, No Iterations 52
GAMG:  Solving for p, Initial residual = 0.662153, Final residual = 0.0526971, No Iterations 2
time step continuity errors : sum local = 0.000677953, global = -2.38313e-05, cumulative = 1.45241e-06
GAMG:  Solving for p, Initial residual = 0.802131, Final residual = 9.16291e-07, No Iterations 21
time step continuity errors : sum local = 9.36785e-09, global = -7.51927e-10, cumulative = 1.45166e-06
ExecutionTime = 0.81 s  ClockTime = 0 s

forceCoeffs forceCoeffs_object write:
    Cm    = -0.000998819
    Cd    = 0.00951256
    Cl    = -1.37066e-19
    Cl(f) = -0.000998819
    Cl(r) = 0.000998819

Time = 2.4

Courant Number mean: 1.55756 max: 8.97431
smoothSolver:  Solving for Ux, Initial residual = 0.0445564, Final residual = 8.31657e-06, No Iterations 38
smoothSolver:  Solving for Uy, Initial residual = 0.17196, Final residual = 9.96088e-06, No Iterations 46
GAMG:  Solving for p, Initial residual = 0.515632, Final residual = 0.0437193, No Iterations 2
time step continuity errors : sum local = 0.000712143, global = 2.51834e-05, cumulative = 2.6635e-05
GAMG:  Solving for p, Initial residual = 0.47789, Final residual = 8.71306e-07, No Iterations 20
time step continuity errors : sum local = 1.49068e-08, global = 1.20276e-09, cumulative = 2.66362e-05
ExecutionTime = 0.85 s  ClockTime = 1 s

forceCoeffs forceCoeffs_object write:
    Cm    = -0.00105597
    Cd    = 0.0100569
    Cl    = -8.08469e-20
    Cl(f) = -0.00105597
    Cl(r) = 0.00105597

Time = 2.6

Courant Number mean: 1.55861 max: 8.82801
smoothSolver:  Solving for Ux, Initial residual = 0.0376535, Final residual = 8.15277e-06, No Iterations 35
smoothSolver:  Solving for Uy, Initial residual = 0.163933, Final residual = 9.00027e-06, No Iterations 43
GAMG:  Solving for p, Initial residual = 0.639674, Final residual = 0.0512251, No Iterations 2
time step continuity errors : sum local = 0.00066999, global = -2.51717e-05, cumulative = 1.46458e-06
GAMG:  Solving for p, Initial residual = 0.790129, Final residual = 8.48986e-07, No Iterations 22
time step continuity errors : sum local = 8.70788e-09, global = -4.25449e-10, cumulative = 1.46415e-06
ExecutionTime = 0.9 s  ClockTime = 1 s

forceCoeffs forceCoeffs_object write:
    Cm    = -0.0014527
    Cd    = 0.0138352
    Cl    = -1.18254e-19
    Cl(f) = -0.0014527
    Cl(r) = 0.0014527

Time = 2.8

Courant Number mean: 1.55973 max: 8.68433
smoothSolver:  Solving for Ux, Initial residual = 0.0423222, Final residual = 8.28722e-06, No Iterations 32
smoothSolver:  Solving for Uy, Initial residual = 0.162287, Final residual = 8.92147e-06, No Iterations 40
GAMG:  Solving for p, Initial residual = 0.510253, Final residual = 0.0433226, No Iterations 2
time step continuity errors : sum local = 0.000708868, global = 2.63609e-05, cumulative = 2.7825e-05
GAMG:  Solving for p, Initial residual = 0.473086, Final residual = 8.73949e-07, No Iterations 20
time step continuity errors : sum local = 1.5066e-08, global = 1.25225e-09, cumulative = 2.78263e-05
ExecutionTime = 0.95 s  ClockTime = 1 s

forceCoeffs forceCoeffs_object write:
    Cm    = -0.00134446
    Cd    = 0.0128044
    Cl    = -6.36703e-20
    Cl(f) = -0.00134446
    Cl(r) = 0.00134446

Time = 3

Courant Number mean: 1.56097 max: 8.59434
smoothSolver:  Solving for Ux, Initial residual = 0.037137, Final residual = 8.82033e-06, No Iterations 30
smoothSolver:  Solving for Uy, Initial residual = 0.15765, Final residual = 8.97054e-06, No Iterations 38
GAMG:  Solving for p, Initial residual = 0.618729, Final residual = 0.049759, No Iterations 2
time step continuity errors : sum local = 0.000672541, global = -2.64472e-05, cumulative = 1.37905e-06
GAMG:  Solving for p, Initial residual = 0.762607, Final residual = 9.87156e-07, No Iterations 21
time step continuity errors : sum local = 1.04999e-08, global = -8.0874e-10, cumulative = 1.37824e-06
ExecutionTime = 1.09 s  ClockTime = 1 s

forceCoeffs forceCoeffs_object write:
    Cm    = -0.00162848
    Cd    = 0.0155093
    Cl    = -1.0102e-19
    Cl(f) = -0.00162848
    Cl(r) = 0.00162848

yPlus yPlus write:
    writing object yPlus
    patch atmosphere y+ : min = 0.477721, max = 1.9592, average = 0.895069
    patch walls y+ : min = 0.0457338, max = 0.253098, average = 0.089496
    patch cylinder y+ : min = 0.0318525, max = 0.148903, average = 0.0826309

Time = 3.2

Courant Number mean: 1.56224 max: 8.49931
smoothSolver:  Solving for Ux, Initial residual = 0.0415131, Final residual = 9.27853e-06, No Iterations 28
smoothSolver:  Solving for Uy, Initial residual = 0.158083, Final residual = 9.10574e-06, No Iterations 36
GAMG:  Solving for p, Initial residual = 0.503867, Final residual = 0.0428992, No Iterations 2
time step continuity errors : sum local = 0.000710788, global = 2.74309e-05, cumulative = 2.88091e-05
GAMG:  Solving for p, Initial residual = 0.468247, Final residual = 8.92169e-07, No Iterations 20
time step continuity errors : sum local = 1.55186e-08, global = 1.28958e-09, cumulative = 2.88104e-05
ExecutionTime = 1.13 s  ClockTime = 1 s

forceCoeffs forceCoeffs_object write:
    Cm    = -0.00139061
    Cd    = 0.0132439
    Cl    = -3.86045e-20
    Cl(f) = -0.00139061
    Cl(r) = 0.00139061

Time = 3.4

Courant Number mean: 1.56358 max: 8.45183
smoothSolver:  Solving for Ux, Initial residual = 0.0372958, Final residual = 9.50424e-06, No Iterations 27
smoothSolver:  Solving for Uy, Initial residual = 0.153671, Final residual = 8.49235e-06, No Iterations 35
GAMG:  Solving for p, Initial residual = 0.597775, Final residual = 0.0483397, No Iterations 2
time step continuity errors : sum local = 0.000672047, global = -2.74526e-05, cumulative = 1.35781e-06
GAMG:  Solving for p, Initial residual = 0.736181, Final residual = 9.13198e-07, No Iterations 21
time step continuity errors : sum local = 9.99045e-09, global = -7.66127e-10, cumulative = 1.35705e-06
ExecutionTime = 1.17 s  ClockTime = 1 s

forceCoeffs forceCoeffs_object write:
    Cm    = -0.00163004
    Cd    = 0.0155242
    Cl    = -7.24538e-20
    Cl(f) = -0.00163004
    Cl(r) = 0.00163004

Time = 3.6

Courant Number mean: 1.56488 max: 8.39277
smoothSolver:  Solving for Ux, Initial residual = 0.0407391, Final residual = 9.36289e-06, No Iterations 26
smoothSolver:  Solving for Uy, Initial residual = 0.15333, Final residual = 7.59338e-06, No Iterations 34
GAMG:  Solving for p, Initial residual = 0.494323, Final residual = 0.0423347, No Iterations 2
time step continuity errors : sum local = 0.000706204, global = 2.81523e-05, cumulative = 2.95094e-05
GAMG:  Solving for p, Initial residual = 0.463247, Final residual = 9.10865e-07, No Iterations 20
time step continuity errors : sum local = 1.57989e-08, global = 1.29306e-09, cumulative = 2.95107e-05
ExecutionTime = 1.22 s  ClockTime = 1 s

forceCoeffs forceCoeffs_object write:
    Cm    = -0.00134921
    Cd    = 0.0128496
    Cl    = -5.63918e-21
    Cl(f) = -0.00134921
    Cl(r) = 0.00134921

Time = 3.8

Courant Number mean: 1.56619 max: 8.37362
smoothSolver:  Solving for Ux, Initial residual = 0.0368636, Final residual = 8.53458e-06, No Iterations 26
smoothSolver:  Solving for Uy, Initial residual = 0.147852, Final residual = 8.03221e-06, No Iterations 33
GAMG:  Solving for p, Initial residual = 0.57814, Final residual = 0.0469786, No Iterations 2
time step continuity errors : sum local = 0.000662861, global = -2.81232e-05, cumulative = 1.38744e-06
GAMG:  Solving for p, Initial residual = 0.714432, Final residual = 8.53228e-07, No Iterations 21
time step continuity errors : sum local = 9.44397e-09, global = -7.28035e-10, cumulative = 1.38671e-06
ExecutionTime = 1.26 s  ClockTime = 1 s

forceCoeffs forceCoeffs_object write:
    Cm    = -0.00162725
    Cd    = 0.0154976
    Cl    = -4.16102e-20
    Cl(f) = -0.00162725
    Cl(r) = 0.00162725

Time = 4

Courant Number mean: 1.5674 max: 8.33087
smoothSolver:  Solving for Ux, Initial residual = 0.0393162, Final residual = 9.71522e-06, No Iterations 25
smoothSolver:  Solving for Uy, Initial residual = 0.146793, Final residual = 8.03186e-06, No Iterations 32
GAMG:  Solving for p, Initial residual = 0.485706, Final residual = 0.041795, No Iterations 2
time step continuity errors : sum local = 0.000694456, global = 2.85343e-05, cumulative = 2.9921e-05
GAMG:  Solving for p, Initial residual = 0.460312, Final residual = 9.56427e-07, No Iterations 20
time step continuity errors : sum local = 1.63614e-08, global = 1.29322e-09, cumulative = 2.99223e-05
ExecutionTime = 1.39 s  ClockTime = 1 s

forceCoeffs forceCoeffs_object write:
    Cm    = -0.00137468
    Cd    = 0.0130922
    Cl    = 2.55518e-20
    Cl(f) = -0.00137468
    Cl(r) = 0.00137468

yPlus yPlus write:
    writing object yPlus
    patch atmosphere y+ : min = 0.445892, max = 1.95918, average = 0.839722
    patch walls y+ : min = 0.0460013, max = 0.253097, average = 0.0855113
    patch cylinder y+ : min = 0.0314461, max = 0.144962, average = 0.0796644

Time = 4.2

Courant Number mean: 1.56862 max: 8.31576
smoothSolver:  Solving for Ux, Initial residual = 0.0358138, Final residual = 9.71842e-06, No Iterations 25
smoothSolver:  Solving for Uy, Initial residual = 0.140554, Final residual = 9.18683e-06, No Iterations 31
GAMG:  Solving for p, Initial residual = 0.563605, Final residual = 0.0457905, No Iterations 2
time step continuity errors : sum local = 0.000648492, global = -2.84629e-05, cumulative = 1.45933e-06
GAMG:  Solving for p, Initial residual = 0.697686, Final residual = 8.76364e-07, No Iterations 21
time step continuity errors : sum local = 9.71848e-09, global = -7.40215e-10, cumulative = 1.45859e-06
ExecutionTime = 1.43 s  ClockTime = 1 s

forceCoeffs forceCoeffs_object write:
    Cm    = -0.00173243
    Cd    = 0.0164993
    Cl    = -1.56616e-20
    Cl(f) = -0.00173243
    Cl(r) = 0.00173243

Time = 4.4

Courant Number mean: 1.56974 max: 8.26329
smoothSolver:  Solving for Ux, Initial residual = 0.0375618, Final residual = 8.43191e-06, No Iterations 25
smoothSolver:  Solving for Uy, Initial residual = 0.139247, Final residual = 9.68455e-06, No Iterations 30
GAMG:  Solving for p, Initial residual = 0.479452, Final residual = 0.0412687, No Iterations 2
time step continuity errors : sum local = 0.00067996, global = 2.8692e-05, cumulative = 3.01506e-05
GAMG:  Solving for p, Initial residual = 0.457706, Final residual = 8.69409e-07, No Iterations 21
time step continuity errors : sum local = 1.46348e-08, global = 6.39091e-10, cumulative = 3.01512e-05
ExecutionTime = 1.48 s  ClockTime = 1 s

forceCoeffs forceCoeffs_object write:
    Cm    = -0.00151738
    Cd    = 0.0144512
    Cl    = 4.95496e-20
    Cl(f) = -0.00151738
    Cl(r) = 0.00151738

Time = 4.6

Courant Number mean: 1.57085 max: 8.2283
smoothSolver:  Solving for Ux, Initial residual = 0.0344206, Final residual = 7.60037e-06, No Iterations 25
smoothSolver:  Solving for Uy, Initial residual = 0.132876, Final residual = 8.06284e-06, No Iterations 30
GAMG:  Solving for p, Initial residual = 0.551956, Final residual = 0.0447666, No Iterations 2
time step continuity errors : sum local = 0.000634661, global = -2.85954e-05, cumulative = 1.55582e-06
GAMG:  Solving for p, Initial residual = 0.683916, Final residual = 6.83355e-07, No Iterations 22
time step continuity errors : sum local = 7.57165e-09, global = -5.79099e-10, cumulative = 1.55524e-06
ExecutionTime = 1.52 s  ClockTime = 1 s

forceCoeffs forceCoeffs_object write:
    Cm    = -0.00193651
    Cd    = 0.0184429
    Cl    = 3.99872e-21
    Cl(f) = -0.00193651
    Cl(r) = 0.00193651

Time = 4.8

Courant Number mean: 1.57184 max: 8.14685
smoothSolver:  Solving for Ux, Initial residual = 0.035733, Final residual = 7.50086e-06, No Iterations 24
smoothSolver:  Solving for Uy, Initial residual = 0.131958, Final residual = 7.99843e-06, No Iterations 29
GAMG:  Solving for p, Initial residual = 0.47467, Final residual = 0.0408365, No Iterations 2
time step continuity errors : sum local = 0.00066804, global = 2.87458e-05, cumulative = 3.0301e-05
GAMG:  Solving for p, Initial residual = 0.455276, Final residual = 5.01884e-07, No Iterations 22
time step continuity errors : sum local = 8.34242e-09, global = 7.55647e-10, cumulative = 3.03018e-05
ExecutionTime = 1.56 s  ClockTime = 1 s

forceCoeffs forceCoeffs_object write:
    Cm    = -0.00172646
    Cd    = 0.0164425
    Cl    = 6.86264e-20
    Cl(f) = -0.00172646
    Cl(r) = 0.00172646

Time = 5

Courant Number mean: 1.57285 max: 8.08392
smoothSolver:  Solving for Ux, Initial residual = 0.0330505, Final residual = 7.88151e-06, No Iterations 23
smoothSolver:  Solving for Uy, Initial residual = 0.126003, Final residual = 8.61137e-06, No Iterations 28
GAMG:  Solving for p, Initial residual = 0.542677, Final residual = 0.0440094, No Iterations 2
time step continuity errors : sum local = 0.000626308, global = -2.86609e-05, cumulative = 1.64091e-06
GAMG:  Solving for p, Initial residual = 0.6722, Final residual = 6.55682e-07, No Iterations 22
time step continuity errors : sum local = 7.29575e-09, global = -5.60367e-10, cumulative = 1.64035e-06
ExecutionTime = 1.7 s  ClockTime = 1 s

forceCoeffs forceCoeffs_object write:
    Cm    = -0.0021637
    Cd    = 0.0206067
    Cl    = 1.90518e-20
    Cl(f) = -0.0021637
    Cl(r) = 0.0021637

yPlus yPlus write:
    writing object yPlus
    patch atmosphere y+ : min = 0.435172, max = 1.9592, average = 0.809405
    patch walls y+ : min = 0.0407766, max = 0.253096, average = 0.0806163
    patch cylinder y+ : min = 0.0323142, max = 0.13936, average = 0.0777303

Time = 5.2

Courant Number mean: 1.5738 max: 7.98306
smoothSolver:  Solving for Ux, Initial residual = 0.034239, Final residual = 7.42086e-06, No Iterations 22
smoothSolver:  Solving for Uy, Initial residual = 0.126027, Final residual = 8.40568e-06, No Iterations 27
GAMG:  Solving for p, Initial residual = 0.471792, Final residual = 0.040621, No Iterations 2
time step continuity errors : sum local = 0.000663986, global = 2.88377e-05, cumulative = 3.04781e-05
GAMG:  Solving for p, Initial residual = 0.453757, Final residual = 8.70067e-07, No Iterations 21
time step continuity errors : sum local = 1.44329e-08, global = 1.05527e-09, cumulative = 3.04791e-05
ExecutionTime = 1.74 s  ClockTime = 1 s

forceCoeffs forceCoeffs_object write:
    Cm    = -0.00191906
    Cd    = 0.0182768
    Cl    = 8.23753e-20
    Cl(f) = -0.00191906
    Cl(r) = 0.00191906

Time = 5.4

Courant Number mean: 1.57481 max: 7.9164
smoothSolver:  Solving for Ux, Initial residual = 0.0321715, Final residual = 8.1409e-06, No Iterations 21
smoothSolver:  Solving for Uy, Initial residual = 0.121121, Final residual = 9.31115e-06, No Iterations 26
GAMG:  Solving for p, Initial residual = 0.536035, Final residual = 0.0435221, No Iterations 2
time step continuity errors : sum local = 0.000627583, global = -2.88157e-05, cumulative = 1.66338e-06
GAMG:  Solving for p, Initial residual = 0.663964, Final residual = 6.29914e-07, No Iterations 22
time step continuity errors : sum local = 7.11902e-09, global = -5.4777e-10, cumulative = 1.66283e-06
ExecutionTime = 1.78 s  ClockTime = 1 s

forceCoeffs forceCoeffs_object write:
    Cm    = -0.0023424
    Cd    = 0.0223086
    Cl    = 2.84172e-20
    Cl(f) = -0.0023424
    Cl(r) = 0.0023424

Time = 5.6

Courant Number mean: 1.57574 max: 7.82582
smoothSolver:  Solving for Ux, Initial residual = 0.0334587, Final residual = 8.62643e-06, No Iterations 20
smoothSolver:  Solving for Uy, Initial residual = 0.122338, Final residual = 9.91761e-06, No Iterations 25
GAMG:  Solving for p, Initial residual = 0.47185, Final residual = 0.0406814, No Iterations 2
time step continuity errors : sum local = 0.000670924, global = 2.9079e-05, cumulative = 3.07419e-05
GAMG:  Solving for p, Initial residual = 0.454244, Final residual = 8.28783e-07, No Iterations 21
time step continuity errors : sum local = 1.38934e-08, global = 1.00575e-09, cumulative = 3.07429e-05
ExecutionTime = 1.83 s  ClockTime = 1 s

forceCoeffs forceCoeffs_object write:
    Cm    = -0.0020426
    Cd    = 0.0194534
    Cl    = 9.06618e-20
    Cl(f) = -0.0020426
    Cl(r) = 0.0020426

Time = 5.8

Courant Number mean: 1.57673 max: 7.78262
smoothSolver:  Solving for Ux, Initial residual = 0.0320084, Final residual = 7.63638e-06, No Iterations 20
smoothSolver:  Solving for Uy, Initial residual = 0.118737, Final residual = 8.5023e-06, No Iterations 25
GAMG:  Solving for p, Initial residual = 0.532013, Final residual = 0.0432715, No Iterations 2
time step continuity errors : sum local = 0.000639025, global = -2.91516e-05, cumulative = 1.59122e-06
GAMG:  Solving for p, Initial residual = 0.658446, Final residual = 6.10115e-07, No Iterations 22
time step continuity errors : sum local = 7.08296e-09, global = -5.47767e-10, cumulative = 1.59067e-06
ExecutionTime = 1.86 s  ClockTime = 2 s

forceCoeffs forceCoeffs_object write:
    Cm    = -0.00243819
    Cd    = 0.0232209
    Cl    = 3.23112e-20
    Cl(f) = -0.00243819
    Cl(r) = 0.00243819

Time = 6

Courant Number mean: 1.57766 max: 7.7218
smoothSolver:  Solving for Ux, Initial residual = 0.0334003, Final residual = 9.13204e-06, No Iterations 19
smoothSolver:  Solving for Uy, Initial residual = 0.120934, Final residual = 7.0164e-06, No Iterations 25
GAMG:  Solving for p, Initial residual = 0.474006, Final residual = 0.0409102, No Iterations 2
time step continuity errors : sum local = 0.000686721, global = 2.94919e-05, cumulative = 3.10826e-05
GAMG:  Solving for p, Initial residual = 0.456334, Final residual = 8.13832e-07, No Iterations 21
time step continuity errors : sum local = 1.3904e-08, global = 1.01676e-09, cumulative = 3.10836e-05
ExecutionTime = 1.99 s  ClockTime = 2 s

forceCoeffs forceCoeffs_object write:
    Cm    = -0.00207721
    Cd    = 0.019783
    Cl    = 9.4069e-20
    Cl(f) = -0.00207721
    Cl(r) = 0.00207721

yPlus yPlus write:
    writing object yPlus
    patch atmosphere y+ : min = 0.418016, max = 1.95918, average = 0.778954
    patch walls y+ : min = 0.0438153, max = 0.253097, average = 0.0795875
    patch cylinder y+ : min = 0.0346961, max = 0.135339, average = 0.078428

Time = 6.2

Courant Number mean: 1.57868 max: 7.71169
smoothSolver:  Solving for Ux, Initial residual = 0.0324193, Final residual = 8.9025e-06, No Iterations 19
smoothSolver:  Solving for Uy, Initial residual = 0.118416, Final residual = 9.32947e-06, No Iterations 24
GAMG:  Solving for p, Initial residual = 0.529145, Final residual = 0.043139, No Iterations 2
time step continuity errors : sum local = 0.00065653, global = -2.96522e-05, cumulative = 1.43147e-06
GAMG:  Solving for p, Initial residual = 0.654412, Final residual = 5.93421e-07, No Iterations 22
time step continuity errors : sum local = 7.11229e-09, global = -5.51499e-10, cumulative = 1.43091e-06
ExecutionTime = 2.04 s  ClockTime = 2 s

forceCoeffs forceCoeffs_object write:
    Cm    = -0.00244803
    Cd    = 0.0233146
    Cl    = 3.1914e-20
    Cl(f) = -0.00244803
    Cl(r) = 0.00244803

Time = 6.4

Courant Number mean: 1.57961 max: 7.68101
smoothSolver:  Solving for Ux, Initial residual = 0.03377, Final residual = 8.10601e-06, No Iterations 19
smoothSolver:  Solving for Uy, Initial residual = 0.120936, Final residual = 8.29217e-06, No Iterations 24
GAMG:  Solving for p, Initial residual = 0.475824, Final residual = 0.0411761, No Iterations 2
time step continuity errors : sum local = 0.000705673, global = 3.00082e-05, cumulative = 3.14391e-05
GAMG:  Solving for p, Initial residual = 0.458482, Final residual = 8.11926e-07, No Iterations 21
time step continuity errors : sum local = 1.41514e-08, global = 1.0405e-09, cumulative = 3.14402e-05
ExecutionTime = 2.08 s  ClockTime = 2 s

forceCoeffs forceCoeffs_object write:
    Cm    = -0.00203487
    Cd    = 0.0193797
    Cl    = 9.42529e-20
    Cl(f) = -0.00203487
    Cl(r) = 0.00203487

Time = 6.6

Courant Number mean: 1.58061 max: 7.69731
smoothSolver:  Solving for Ux, Initial residual = 0.033031, Final residual = 8.34613e-06, No Iterations 19
smoothSolver:  Solving for Uy, Initial residual = 0.118989, Final residual = 8.10919e-06, No Iterations 24
GAMG:  Solving for p, Initial residual = 0.525712, Final residual = 0.0430017, No Iterations 2
time step continuity errors : sum local = 0.000673716, global = -3.02173e-05, cumulative = 1.22283e-06
GAMG:  Solving for p, Initial residual = 0.649898, Final residual = 5.86639e-07, No Iterations 22
time step continuity errors : sum local = 7.23508e-09, global = -5.60951e-10, cumulative = 1.22227e-06
ExecutionTime = 2.13 s  ClockTime = 2 s

forceCoeffs forceCoeffs_object write:
    Cm    = -0.00239983
    Cd    = 0.0228555
    Cl    = 2.89569e-20
    Cl(f) = -0.00239983
    Cl(r) = 0.00239983

Time = 6.8

Courant Number mean: 1.58152 max: 7.68421
smoothSolver:  Solving for Ux, Initial residual = 0.0341495, Final residual = 7.88031e-06, No Iterations 19
smoothSolver:  Solving for Uy, Initial residual = 0.121074, Final residual = 7.45019e-06, No Iterations 24
GAMG:  Solving for p, Initial residual = 0.476325, Final residual = 0.0413462, No Iterations 2
time step continuity errors : sum local = 0.000721524, global = 3.05213e-05, cumulative = 3.17436e-05
GAMG:  Solving for p, Initial residual = 0.459876, Final residual = 8.09512e-07, No Iterations 21
time step continuity errors : sum local = 1.43117e-08, global = 1.05505e-09, cumulative = 3.17447e-05
ExecutionTime = 2.17 s  ClockTime = 2 s

forceCoeffs forceCoeffs_object write:
    Cm    = -0.00195725
    Cd    = 0.0186405
    Cl    = 9.28262e-20
    Cl(f) = -0.00195725
    Cl(r) = 0.00195725

Time = 7

Courant Number mean: 1.58248 max: 7.71078
smoothSolver:  Solving for Ux, Initial residual = 0.0334665, Final residual = 8.26396e-06, No Iterations 19
smoothSolver:  Solving for Uy, Initial residual = 0.119111, Final residual = 7.4268e-06, No Iterations 24
GAMG:  Solving for p, Initial residual = 0.521278, Final residual = 0.042789, No Iterations 2
time step continuity errors : sum local = 0.000685807, global = -3.07422e-05, cumulative = 1.0025e-06
GAMG:  Solving for p, Initial residual = 0.644471, Final residual = 5.95211e-07, No Iterations 22
time step continuity errors : sum local = 7.49322e-09, global = -5.81808e-10, cumulative = 1.00192e-06
ExecutionTime = 2.3 s  ClockTime = 2 s

forceCoeffs forceCoeffs_object write:
    Cm    = -0.00234005
    Cd    = 0.0222862
    Cl    = 2.53668e-20
    Cl(f) = -0.00234005
    Cl(r) = 0.00234005

yPlus yPlus write:
    writing object yPlus
    patch atmosphere y+ : min = 0.420161, max = 1.9592, average = 0.765
    patch walls y+ : min = 0.0387776, max = 0.253096, average = 0.0758845
    patch cylinder y+ : min = 0.03611, max = 0.133981, average = 0.0779399

Time = 7.2

Courant Number mean: 1.58332 max: 7.69807
smoothSolver:  Solving for Ux, Initial residual = 0.0342418, Final residual = 7.80081e-06, No Iterations 19
smoothSolver:  Solving for Uy, Initial residual = 0.120314, Final residual = 9.94958e-06, No Iterations 23
GAMG:  Solving for p, Initial residual = 0.474938, Final residual = 0.0413986, No Iterations 2
time step continuity errors : sum local = 0.0007311, global = 3.09617e-05, cumulative = 3.19636e-05
GAMG:  Solving for p, Initial residual = 0.460394, Final residual = 8.0446e-07, No Iterations 21
time step continuity errors : sum local = 1.43081e-08, global = 1.05504e-09, cumulative = 3.19647e-05
ExecutionTime = 2.34 s  ClockTime = 2 s

forceCoeffs forceCoeffs_object write:
    Cm    = -0.00189231
    Cd    = 0.018022
    Cl    = 9.09751e-20
    Cl(f) = -0.00189231
    Cl(r) = 0.00189231

Time = 7.4

Courant Number mean: 1.58424 max: 7.71909
smoothSolver:  Solving for Ux, Initial residual = 0.0335382, Final residual = 8.05594e-06, No Iterations 19
smoothSolver:  Solving for Uy, Initial residual = 0.118128, Final residual = 9.82065e-06, No Iterations 23
GAMG:  Solving for p, Initial residual = 0.515842, Final residual = 0.0425028, No Iterations 2
time step continuity errors : sum local = 0.000691443, global = -3.11656e-05, cumulative = 7.99062e-07
GAMG:  Solving for p, Initial residual = 0.638649, Final residual = 6.41133e-07, No Iterations 22
time step continuity errors : sum local = 8.16586e-09, global = -6.41518e-10, cumulative = 7.98421e-07
ExecutionTime = 2.37 s  ClockTime = 2 s

forceCoeffs forceCoeffs_object write:
    Cm    = -0.00231017
    Cd    = 0.0220016
    Cl    = 2.19252e-20
    Cl(f) = -0.00231017
    Cl(r) = 0.00231017

Time = 7.6

Courant Number mean: 1.58502 max: 7.69378
smoothSolver:  Solving for Ux, Initial residual = 0.0339844, Final residual = 7.37198e-06, No Iterations 19
smoothSolver:  Solving for Uy, Initial residual = 0.11842, Final residual = 8.87857e-06, No Iterations 23
GAMG:  Solving for p, Initial residual = 0.472465, Final residual = 0.0413562, No Iterations 2
time step continuity errors : sum local = 0.000734642, global = 3.12913e-05, cumulative = 3.20897e-05
GAMG:  Solving for p, Initial residual = 0.460119, Final residual = 8.15543e-07, No Iterations 21
time step continuity errors : sum local = 1.45018e-08, global = 1.07502e-09, cumulative = 3.20908e-05
ExecutionTime = 2.43 s  ClockTime = 2 s

forceCoeffs forceCoeffs_object write:
    Cm    = -0.00186931
    Cd    = 0.0178029
    Cl    = 8.96719e-20
    Cl(f) = -0.00186931
    Cl(r) = 0.00186931

Time = 7.8

Courant Number mean: 1.58585 max: 7.69997
smoothSolver:  Solving for Ux, Initial residual = 0.033276, Final residual = 7.32939e-06, No Iterations 19
smoothSolver:  Solving for Uy, Initial residual = 0.116202, Final residual = 8.57137e-06, No Iterations 23
GAMG:  Solving for p, Initial residual = 0.510291, Final residual = 0.0421872, No Iterations 2
time step continuity errors : sum local = 0.000692504, global = -3.14692e-05, cumulative = 6.21592e-07
GAMG:  Solving for p, Initial residual = 0.632832, Final residual = 6.97517e-07, No Iterations 22
time step continuity errors : sum local = 8.93689e-09, global = -7.06538e-10, cumulative = 6.20885e-07
ExecutionTime = 2.47 s  ClockTime = 2 s

forceCoeffs forceCoeffs_object write:
    Cm    = -0.00232358
    Cd    = 0.0221293
    Cl    = 1.97603e-20
    Cl(f) = -0.00232358
    Cl(r) = 0.00232358

Time = 8

Courant Number mean: 1.58656 max: 7.65789
smoothSolver:  Solving for Ux, Initial residual = 0.0335184, Final residual = 9.51523e-06, No Iterations 18
smoothSolver:  Solving for Uy, Initial residual = 0.115928, Final residual = 7.55397e-06, No Iterations 23
GAMG:  Solving for p, Initial residual = 0.469967, Final residual = 0.0412772, No Iterations 2
time step continuity errors : sum local = 0.000735001, global = 3.15219e-05, cumulative = 3.21428e-05
GAMG:  Solving for p, Initial residual = 0.459435, Final residual = 8.2215e-07, No Iterations 21
time step continuity errors : sum local = 1.45823e-08, global = 1.08446e-09, cumulative = 3.21439e-05
ExecutionTime = 2.6 s  ClockTime = 2 s

forceCoeffs forceCoeffs_object write:
    Cm    = -0.00188781
    Cd    = 0.0179791
    Cl    = 8.98437e-20
    Cl(f) = -0.00188781
    Cl(r) = 0.00188781

yPlus yPlus write:
    writing object yPlus
    patch atmosphere y+ : min = 0.408239, max = 1.95917, average = 0.742903
    patch walls y+ : min = 0.0434903, max = 0.253097, average = 0.0762366
    patch cylinder y+ : min = 0.0364054, max = 0.133604, average = 0.078126

Time = 8.2

Courant Number mean: 1.58735 max: 7.65018
smoothSolver:  Solving for Ux, Initial residual = 0.0328594, Final residual = 9.20047e-06, No Iterations 18
smoothSolver:  Solving for Uy, Initial residual = 0.113971, Final residual = 7.15925e-06, No Iterations 23
GAMG:  Solving for p, Initial residual = 0.505406, Final residual = 0.0418987, No Iterations 2
time step continuity errors : sum local = 0.000692221, global = -3.16848e-05, cumulative = 4.5906e-07
GAMG:  Solving for p, Initial residual = 0.627593, Final residual = 7.10174e-07, No Iterations 22
time step continuity errors : sum local = 9.14058e-09, global = -7.17429e-10, cumulative = 4.58342e-07
ExecutionTime = 2.64 s  ClockTime = 2 s

forceCoeffs forceCoeffs_object write:
    Cm    = -0.00236768
    Cd    = 0.0225493
    Cl    = 1.96799e-20
    Cl(f) = -0.00236768
    Cl(r) = 0.00236768

Time = 8.4

Courant Number mean: 1.58798 max: 7.59715
smoothSolver:  Solving for Ux, Initial residual = 0.0330499, Final residual = 8.0358e-06, No Iterations 18
smoothSolver:  Solving for Uy, Initial residual = 0.113572, Final residual = 9.23405e-06, No Iterations 22
GAMG:  Solving for p, Initial residual = 0.468033, Final residual = 0.0412289, No Iterations 2
time step continuity errors : sum local = 0.000735684, global = 3.17026e-05, cumulative = 3.21609e-05
GAMG:  Solving for p, Initial residual = 0.458753, Final residual = 8.18583e-07, No Iterations 21
time step continuity errors : sum local = 1.45095e-08, global = 1.09067e-09, cumulative = 3.2162e-05
ExecutionTime = 2.68 s  ClockTime = 2 s

forceCoeffs forceCoeffs_object write:
    Cm    = -0.00192769
    Cd    = 0.018359
    Cl    = 9.18176e-20
    Cl(f) = -0.00192769
    Cl(r) = 0.00192769

Time = 8.6

Courant Number mean: 1.58872 max: 7.58489
smoothSolver:  Solving for Ux, Initial residual = 0.0324944, Final residual = 7.7883e-06, No Iterations 18
smoothSolver:  Solving for Uy, Initial residual = 0.112081, Final residual = 8.76153e-06, No Iterations 22
GAMG:  Solving for p, Initial residual = 0.501643, Final residual = 0.0416795, No Iterations 2
time step continuity errors : sum local = 0.000693674, global = -3.18756e-05, cumulative = 2.86448e-07
GAMG:  Solving for p, Initial residual = 0.623361, Final residual = 7.07476e-07, No Iterations 22
time step continuity errors : sum local = 9.16829e-09, global = -7.21505e-10, cumulative = 2.85727e-07
ExecutionTime = 2.72 s  ClockTime = 2 s

forceCoeffs forceCoeffs_object write:
    Cm    = -0.00241991
    Cd    = 0.0230467
    Cl    = 2.14655e-20
    Cl(f) = -0.00241991
    Cl(r) = 0.00241991

Time = 8.8

Courant Number mean: 1.58932 max: 7.53256
smoothSolver:  Solving for Ux, Initial residual = 0.0327516, Final residual = 6.92713e-06, No Iterations 18
smoothSolver:  Solving for Uy, Initial residual = 0.111851, Final residual = 7.83104e-06, No Iterations 22
GAMG:  Solving for p, Initial residual = 0.467195, Final residual = 0.0412471, No Iterations 2
time step continuity errors : sum local = 0.00073903, global = 3.18962e-05, cumulative = 3.21819e-05
GAMG:  Solving for p, Initial residual = 0.458581, Final residual = 8.00005e-07, No Iterations 21
time step continuity errors : sum local = 1.42264e-08, global = 1.06764e-09, cumulative = 3.2183e-05
ExecutionTime = 2.76 s  ClockTime = 2 s

forceCoeffs forceCoeffs_object write:
    Cm    = -0.001967
    Cd    = 0.0187334
    Cl    = 9.53677e-20
    Cl(f) = -0.001967
    Cl(r) = 0.001967

Time = 9

Courant Number mean: 1.59002 max: 7.5276
smoothSolver:  Solving for Ux, Initial residual = 0.0323093, Final residual = 6.89054e-06, No Iterations 18
smoothSolver:  Solving for Uy, Initial residual = 0.110963, Final residual = 7.58206e-06, No Iterations 22
GAMG:  Solving for p, Initial residual = 0.499094, Final residual = 0.0415509, No Iterations 2
time step continuity errors : sum local = 0.000698472, global = -3.21018e-05, cumulative = 8.11503e-08
GAMG:  Solving for p, Initial residual = 0.620198, Final residual = 7.0545e-07, No Iterations 22
time step continuity errors : sum local = 9.23834e-09, global = -7.2899e-10, cumulative = 8.04213e-08
ExecutionTime = 2.89 s  ClockTime = 3 s

forceCoeffs forceCoeffs_object write:
    Cm    = -0.00246179
    Cd    = 0.0234456
    Cl    = 2.44672e-20
    Cl(f) = -0.00246179
    Cl(r) = 0.00246179

yPlus yPlus write:
    writing object yPlus
    patch atmosphere y+ : min = 0.416632, max = 1.9592, average = 0.736802
    patch walls y+ : min = 0.0380728, max = 0.253096, average = 0.0728911
    patch cylinder y+ : min = 0.0349229, max = 0.131188, average = 0.0772145

Time = 9.2

Courant Number mean: 1.59058 max: 7.48634
smoothSolver:  Solving for Ux, Initial residual = 0.0326641, Final residual = 9.42326e-06, No Iterations 17
smoothSolver:  Solving for Uy, Initial residual = 0.110948, Final residual = 6.98714e-06, No Iterations 22
GAMG:  Solving for p, Initial residual = 0.46736, Final residual = 0.0413271, No Iterations 2
time step continuity errors : sum local = 0.00074564, global = 3.21463e-05, cumulative = 3.22267e-05
GAMG:  Solving for p, Initial residual = 0.458734, Final residual = 7.86436e-07, No Iterations 21
time step continuity errors : sum local = 1.40848e-08, global = 1.04522e-09, cumulative = 3.22278e-05
ExecutionTime = 2.93 s  ClockTime = 3 s

forceCoeffs forceCoeffs_object write:
    Cm    = -0.00198993
    Cd    = 0.0189517
    Cl    = 9.98178e-20
    Cl(f) = -0.00198993
    Cl(r) = 0.00198993

Time = 9.4

Courant Number mean: 1.59125 max: 7.49587
smoothSolver:  Solving for Ux, Initial residual = 0.0323087, Final residual = 9.66395e-06, No Iterations 17
smoothSolver:  Solving for Uy, Initial residual = 0.110714, Final residual = 6.93841e-06, No Iterations 22
GAMG:  Solving for p, Initial residual = 0.497335, Final residual = 0.0414689, No Iterations 2
time step continuity errors : sum local = 0.000705764, global = -3.23937e-05, cumulative = -1.65955e-07
GAMG:  Solving for p, Initial residual = 0.617689, Final residual = 7.04972e-07, No Iterations 22
time step continuity errors : sum local = 9.3508e-09, global = -7.39344e-10, cumulative = -1.66694e-07
ExecutionTime = 2.97 s  ClockTime = 3 s

forceCoeffs forceCoeffs_object write:
    Cm    = -0.00248165
    Cd    = 0.0236348
    Cl    = 2.85412e-20
    Cl(f) = -0.00248165
    Cl(r) = 0.00248165

Time = 9.6

Courant Number mean: 1.59177 max: 7.46978
smoothSolver:  Solving for Ux, Initial residual = 0.0327272, Final residual = 9.19966e-06, No Iterations 17
smoothSolver:  Solving for Uy, Initial residual = 0.11079, Final residual = 9.87992e-06, No Iterations 21
GAMG:  Solving for p, Initial residual = 0.467784, Final residual = 0.0414146, No Iterations 2
time step continuity errors : sum local = 0.000753696, global = 3.24538e-05, cumulative = 3.22871e-05
GAMG:  Solving for p, Initial residual = 0.459184, Final residual = 7.86158e-07, No Iterations 21
time step continuity errors : sum local = 1.41946e-08, global = 1.04937e-09, cumulative = 3.22881e-05
ExecutionTime = 3.01 s  ClockTime = 3 s

forceCoeffs forceCoeffs_object write:
    Cm    = -0.0019887
    Cd    = 0.01894
    Cl    = 1.05297e-19
    Cl(f) = -0.0019887
    Cl(r) = 0.0019887

Time = 9.8

Courant Number mean: 1.5924 max: 7.4955
smoothSolver:  Solving for Ux, Initial residual = 0.032398, Final residual = 9.6861e-06, No Iterations 17
smoothSolver:  Solving for Uy, Initial residual = 0.111074, Final residual = 6.74686e-06, No Iterations 22
GAMG:  Solving for p, Initial residual = 0.495629, Final residual = 0.0413871, No Iterations 2
time step continuity errors : sum local = 0.000713493, global = -3.2731e-05, cumulative = -4.42915e-07
GAMG:  Solving for p, Initial residual = 0.615241, Final residual = 7.03743e-07, No Iterations 22
time step continuity errors : sum local = 9.45361e-09, global = -7.48284e-10, cumulative = -4.43663e-07
ExecutionTime = 3.05 s  ClockTime = 3 s

forceCoeffs forceCoeffs_object write:
    Cm    = -0.00247852
    Cd    = 0.023605
    Cl    = 3.35875e-20
    Cl(f) = -0.00247852
    Cl(r) = 0.00247852

Time = 10

Courant Number mean: 1.59285 max: 7.48312
smoothSolver:  Solving for Ux, Initial residual = 0.0328035, Final residual = 9.42231e-06, No Iterations 17
smoothSolver:  Solving for Uy, Initial residual = 0.111033, Final residual = 9.90062e-06, No Iterations 21
GAMG:  Solving for p, Initial residual = 0.467744, Final residual = 0.0414825, No Iterations 2
time step continuity errors : sum local = 0.00076115, global = 3.27787e-05, cumulative = 3.2335e-05
GAMG:  Solving for p, Initial residual = 0.459556, Final residual = 7.8941e-07, No Iterations 21
time step continuity errors : sum local = 1.43466e-08, global = 1.05821e-09, cumulative = 3.23361e-05
ExecutionTime = 3.19 s  ClockTime = 3 s

forceCoeffs forceCoeffs_object write:
    Cm    = -0.00196854
    Cd    = 0.018748
    Cl    = 1.12071e-19
    Cl(f) = -0.00196854
    Cl(r) = 0.00196854

yPlus yPlus write:
    writing object yPlus
    patch atmosphere y+ : min = 0.407299, max = 1.95917, average = 0.719011
    patch walls y+ : min = 0.043646, max = 0.253097, average = 0.0740116
    patch cylinder y+ : min = 0.0345795, max = 0.132069, average = 0.07829

Time = 10.2

Courant Number mean: 1.59343 max: 7.52086
smoothSolver:  Solving for Ux, Initial residual = 0.0324428, Final residual = 6.83233e-06, No Iterations 18
smoothSolver:  Solving for Uy, Initial residual = 0.111606, Final residual = 6.90505e-06, No Iterations 22
GAMG:  Solving for p, Initial residual = 0.49364, Final residual = 0.0412836, No Iterations 2
time step continuity errors : sum local = 0.000719366, global = -3.30671e-05, cumulative = -7.31044e-07
GAMG:  Solving for p, Initial residual = 0.612508, Final residual = 7.0184e-07, No Iterations 22
time step continuity errors : sum local = 9.5209e-09, global = -7.53999e-10, cumulative = -7.31798e-07
ExecutionTime = 3.23 s  ClockTime = 3 s

forceCoeffs forceCoeffs_object write:
    Cm    = -0.00246275
    Cd    = 0.0234548
    Cl    = 4.00902e-20
    Cl(f) = -0.00246275
    Cl(r) = 0.00246275

Time = 10.4

Courant Number mean: 1.59384 max: 7.51707
smoothSolver:  Solving for Ux, Initial residual = 0.0327637, Final residual = 9.95837e-06, No Iterations 17
smoothSolver:  Solving for Uy, Initial residual = 0.111245, Final residual = 6.88059e-06, No Iterations 22
GAMG:  Solving for p, Initial residual = 0.467211, Final residual = 0.0415302, No Iterations 2
time step continuity errors : sum local = 0.000766199, global = 3.30748e-05, cumulative = 3.2343e-05
GAMG:  Solving for p, Initial residual = 0.459878, Final residual = 7.89829e-07, No Iterations 21
time step continuity errors : sum local = 1.43876e-08, global = 1.06127e-09, cumulative = 3.2344e-05
ExecutionTime = 3.27 s  ClockTime = 3 s

forceCoeffs forceCoeffs_object write:
    Cm    = -0.00194483
    Cd    = 0.0185221
    Cl    = 1.19906e-19
    Cl(f) = -0.00194483
    Cl(r) = 0.00194483

Time = 10.6

Courant Number mean: 1.59438 max: 7.56031
smoothSolver:  Solving for Ux, Initial residual = 0.0323483, Final residual = 7.33679e-06, No Iterations 18
smoothSolver:  Solving for Uy, Initial residual = 0.111891, Final residual = 7.34304e-06, No Iterations 22
GAMG:  Solving for p, Initial residual = 0.491415, Final residual = 0.0411933, No Iterations 2
time step continuity errors : sum local = 0.00072267, global = -3.33656e-05, cumulative = -1.02152e-06
GAMG:  Solving for p, Initial residual = 0.609536, Final residual = 6.9938e-07, No Iterations 22
time step continuity errors : sum local = 9.54109e-09, global = -7.5604e-10, cumulative = -1.02227e-06
ExecutionTime = 3.31 s  ClockTime = 3 s

forceCoeffs forceCoeffs_object write:
    Cm    = -0.00245054
    Cd    = 0.0233385
    Cl    = 4.72458e-20
    Cl(f) = -0.00245054
    Cl(r) = 0.00245054

Time = 10.8

Courant Number mean: 1.59477 max: 7.55815
smoothSolver:  Solving for Ux, Initial residual = 0.0325507, Final residual = 7.24013e-06, No Iterations 18
smoothSolver:  Solving for Uy, Initial residual = 0.1111, Final residual = 7.39491e-06, No Iterations 22
GAMG:  Solving for p, Initial residual = 0.466275, Final residual = 0.0415466, No Iterations 2
time step continuity errors : sum local = 0.000768195, global = 3.33315e-05, cumulative = 3.23092e-05
GAMG:  Solving for p, Initial residual = 0.459946, Final residual = 7.80169e-07, No Iterations 21
time step continuity errors : sum local = 1.41944e-08, global = 1.04631e-09, cumulative = 3.23103e-05
ExecutionTime = 3.35 s  ClockTime = 3 s

forceCoeffs forceCoeffs_object write:
    Cm    = -0.00193166
    Cd    = 0.0183967
    Cl    = 1.27608e-19
    Cl(f) = -0.00193166
    Cl(r) = 0.00193166

Time = 11

Courant Number mean: 1.59534 max: 7.60124
smoothSolver:  Solving for Ux, Initial residual = 0.0321265, Final residual = 7.90132e-06, No Iterations 18
smoothSolver:  Solving for Uy, Initial residual = 0.111547, Final residual = 7.97917e-06, No Iterations 22
GAMG:  Solving for p, Initial residual = 0.489113, Final residual = 0.0411075, No Iterations 2
time step continuity errors : sum local = 0.000723782, global = -3.36136e-05, cumulative = -1.30331e-06
GAMG:  Solving for p, Initial residual = 0.606592, Final residual = 6.96457e-07, No Iterations 22
time step continuity errors : sum local = 9.52486e-09, global = -7.55698e-10, cumulative = -1.30407e-06
ExecutionTime = 3.49 s  ClockTime = 3 s

forceCoeffs forceCoeffs_object write:
    Cm    = -0.00245152
    Cd    = 0.0233478
    Cl    = 5.37769e-20
    Cl(f) = -0.00245152
    Cl(r) = 0.00245152

yPlus yPlus write:
    writing object yPlus
    patch atmosphere y+ : min = 0.41865, max = 1.9592, average = 0.717962
    patch walls y+ : min = 0.0378689, max = 0.253096, average = 0.0707741
    patch cylinder y+ : min = 0.0357352, max = 0.132522, average = 0.0774825

Time = 11.2

Courant Number mean: 1.59577 max: 7.5959
smoothSolver:  Solving for Ux, Initial residual = 0.0322293, Final residual = 7.75054e-06, No Iterations 18
smoothSolver:  Solving for Uy, Initial residual = 0.110491, Final residual = 8.03712e-06, No Iterations 22
GAMG:  Solving for p, Initial residual = 0.465257, Final residual = 0.0415323, No Iterations 2
time step continuity errors : sum local = 0.000767937, global = 3.35476e-05, cumulative = 3.22435e-05
GAMG:  Solving for p, Initial residual = 0.459752, Final residual = 7.76165e-07, No Iterations 21
time step continuity errors : sum local = 1.40838e-08, global = 1.03995e-09, cumulative = 3.22445e-05
ExecutionTime = 3.53 s  ClockTime = 3 s

forceCoeffs forceCoeffs_object write:
    Cm    = -0.00193431
    Cd    = 0.018422
    Cl    = 1.33851e-19
    Cl(f) = -0.00193431
    Cl(r) = 0.00193431

Time = 11.4

Courant Number mean: 1.59636 max: 7.63532
smoothSolver:  Solving for Ux, Initial residual = 0.0318567, Final residual = 8.40693e-06, No Iterations 18
smoothSolver:  Solving for Uy, Initial residual = 0.110775, Final residual = 8.68952e-06, No Iterations 22
GAMG:  Solving for p, Initial residual = 0.486985, Final residual = 0.0410316, No Iterations 2
time step continuity errors : sum local = 0.000723892, global = -3.38337e-05, cumulative = -1.58916e-06
GAMG:  Solving for p, Initial residual = 0.603446, Final residual = 6.92583e-07, No Iterations 22
time step continuity errors : sum local = 9.49129e-09, global = -7.54662e-10, cumulative = -1.58991e-06
ExecutionTime = 3.57 s  ClockTime = 3 s

forceCoeffs forceCoeffs_object write:
    Cm    = -0.00246575
    Cd    = 0.0234833
    Cl    = 5.83913e-20
    Cl(f) = -0.00246575
    Cl(r) = 0.00246575

Time = 11.6

Courant Number mean: 1.59677 max: 7.62534
smoothSolver:  Solving for Ux, Initial residual = 0.03191, Final residual = 8.18237e-06, No Iterations 18
smoothSolver:  Solving for Uy, Initial residual = 0.1097, Final residual = 8.71819e-06, No Iterations 22
GAMG:  Solving for p, Initial residual = 0.464282, Final residual = 0.0414966, No Iterations 2
time step continuity errors : sum local = 0.000767235, global = 3.37577e-05, cumulative = 3.21678e-05
GAMG:  Solving for p, Initial residual = 0.459302, Final residual = 7.73677e-07, No Iterations 21
time step continuity errors : sum local = 1.40166e-08, global = 1.03846e-09, cumulative = 3.21688e-05
ExecutionTime = 3.61 s  ClockTime = 3 s

forceCoeffs forceCoeffs_object write:
    Cm    = -0.00194843
    Cd    = 0.0185565
    Cl    = 1.37544e-19
    Cl(f) = -0.00194843
    Cl(r) = 0.00194843

Time = 11.8

Courant Number mean: 1.59736 max: 7.66087
smoothSolver:  Solving for Ux, Initial residual = 0.0316274, Final residual = 8.81662e-06, No Iterations 18
smoothSolver:  Solving for Uy, Initial residual = 0.10994, Final residual = 9.39648e-06, No Iterations 22
GAMG:  Solving for p, Initial residual = 0.485, Final residual = 0.0409537, No Iterations 2
time step continuity errors : sum local = 0.000724549, global = -3.40604e-05, cumulative = -1.8916e-06
GAMG:  Solving for p, Initial residual = 0.60048, Final residual = 6.86601e-07, No Iterations 22
time step continuity errors : sum local = 9.44219e-09, global = -7.52852e-10, cumulative = -1.89235e-06
ExecutionTime = 3.65 s  ClockTime = 3 s

forceCoeffs forceCoeffs_object write:
    Cm    = -0.0024861
    Cd    = 0.0236772
    Cl    = 5.97567e-20
    Cl(f) = -0.0024861
    Cl(r) = 0.0024861

Time = 12

Courant Number mean: 1.59776 max: 7.64694
smoothSolver:  Solving for Ux, Initial residual = 0.0316889, Final residual = 8.52706e-06, No Iterations 18
smoothSolver:  Solving for Uy, Initial residual = 0.108988, Final residual = 9.35349e-06, No Iterations 22
GAMG:  Solving for p, Initial residual = 0.46341, Final residual = 0.0414431, No Iterations 2
time step continuity errors : sum local = 0.000767301, global = 3.39947e-05, cumulative = 3.21023e-05
GAMG:  Solving for p, Initial residual = 0.458865, Final residual = 7.67991e-07, No Iterations 21
time step continuity errors : sum local = 1.39248e-08, global = 1.03601e-09, cumulative = 3.21034e-05
ExecutionTime = 3.78 s  ClockTime = 3 s

forceCoeffs forceCoeffs_object write:
    Cm    = -0.00196424
    Cd    = 0.0187071
    Cl    = 1.37662e-19
    Cl(f) = -0.00196424
    Cl(r) = 0.00196424

yPlus yPlus write:
    writing object yPlus
    patch atmosphere y+ : min = 0.409818, max = 1.95917, average = 0.702766
    patch walls y+ : min = 0.0437857, max = 0.253097, average = 0.0723586
    patch cylinder y+ : min = 0.0363028, max = 0.133875, average = 0.0784606

Time = 12.2

Courant Number mean: 1.59836 max: 7.67953
smoothSolver:  Solving for Ux, Initial residual = 0.0315056, Final residual = 9.13676e-06, No Iterations 18
smoothSolver:  Solving for Uy, Initial residual = 0.109351, Final residual = 6.75392e-06, No Iterations 23
GAMG:  Solving for p, Initial residual = 0.483137, Final residual = 0.0408637, No Iterations 2
time step continuity errors : sum local = 0.000726308, global = -3.43252e-05, cumulative = -2.22184e-06
GAMG:  Solving for p, Initial residual = 0.597663, Final residual = 6.79038e-07, No Iterations 22
time step continuity errors : sum local = 9.39118e-09, global = -7.50893e-10, cumulative = -2.22259e-06
ExecutionTime = 3.82 s  ClockTime = 3 s

forceCoeffs forceCoeffs_object write:
    Cm    = -0.00250469
    Cd    = 0.0238542
    Cl    = 5.74798e-20
    Cl(f) = -0.00250469
    Cl(r) = 0.00250469

Time = 12.4

Courant Number mean: 1.59878 max: 7.6626
smoothSolver:  Solving for Ux, Initial residual = 0.0316097, Final residual = 8.78204e-06, No Iterations 18
smoothSolver:  Solving for Uy, Initial residual = 0.108625, Final residual = 9.8528e-06, No Iterations 22
GAMG:  Solving for p, Initial residual = 0.462567, Final residual = 0.0414225, No Iterations 2
time step continuity errors : sum local = 0.000769725, global = 3.42807e-05, cumulative = 3.20581e-05
GAMG:  Solving for p, Initial residual = 0.458036, Final residual = 7.64679e-07, No Iterations 21
time step continuity errors : sum local = 1.39195e-08, global = 1.04006e-09, cumulative = 3.20592e-05
ExecutionTime = 3.86 s  ClockTime = 4 s

forceCoeffs forceCoeffs_object write:
    Cm    = -0.00197722
    Cd    = 0.0188307
    Cl    = 1.3412e-19
    Cl(f) = -0.00197722
    Cl(r) = 0.00197722

Time = 12.6

Courant Number mean: 1.59936 max: 7.69261
smoothSolver:  Solving for Ux, Initial residual = 0.031494, Final residual = 9.35132e-06, No Iterations 18
smoothSolver:  Solving for Uy, Initial residual = 0.109138, Final residual = 7.05663e-06, No Iterations 23
GAMG:  Solving for p, Initial residual = 0.481046, Final residual = 0.0407498, No Iterations 2
time step continuity errors : sum local = 0.000729499, global = -3.46395e-05, cumulative = -2.58036e-06
GAMG:  Solving for p, Initial residual = 0.594188, Final residual = 6.70504e-07, No Iterations 22
time step continuity errors : sum local = 9.3562e-09, global = -7.4978e-10, cumulative = -2.58111e-06
ExecutionTime = 3.9 s  ClockTime = 4 s

forceCoeffs forceCoeffs_object write:
    Cm    = -0.00251864
    Cd    = 0.0239871
    Cl    = 5.13614e-20
    Cl(f) = -0.00251864
    Cl(r) = 0.00251864

Time = 12.8

Courant Number mean: 1.59975 max: 7.67191
smoothSolver:  Solving for Ux, Initial residual = 0.0316454, Final residual = 8.8904e-06, No Iterations 18
smoothSolver:  Solving for Uy, Initial residual = 0.108621, Final residual = 6.83504e-06, No Iterations 23
GAMG:  Solving for p, Initial residual = 0.461345, Final residual = 0.0414399, No Iterations 2
time step continuity errors : sum local = 0.000774785, global = 3.46177e-05, cumulative = 3.20366e-05
GAMG:  Solving for p, Initial residual = 0.456673, Final residual = 7.63681e-07, No Iterations 21
time step continuity errors : sum local = 1.39961e-08, global = 1.0493e-09, cumulative = 3.20376e-05
ExecutionTime = 3.94 s  ClockTime = 4 s

forceCoeffs forceCoeffs_object write:
    Cm    = -0.00198057
    Cd    = 0.0188625
    Cl    = 1.26921e-19
    Cl(f) = -0.00198057
    Cl(r) = 0.00198057

Time = 13

Courant Number mean: 1.60033 max: 7.69766
smoothSolver:  Solving for Ux, Initial residual = 0.0315693, Final residual = 9.35819e-06, No Iterations 18
smoothSolver:  Solving for Uy, Initial residual = 0.10933, Final residual = 7.11049e-06, No Iterations 23
GAMG:  Solving for p, Initial residual = 0.478557, Final residual = 0.0406071, No Iterations 2
time step continuity errors : sum local = 0.000733593, global = -3.49939e-05, cumulative = -2.95627e-06
GAMG:  Solving for p, Initial residual = 0.590516, Final residual = 6.62243e-07, No Iterations 22
time step continuity errors : sum local = 9.33585e-09, global = -7.48983e-10, cumulative = -2.95702e-06
ExecutionTime = 4.08 s  ClockTime = 4 s

forceCoeffs forceCoeffs_object write:
    Cm    = -0.00252003
    Cd    = 0.0240003
    Cl    = 4.17211e-20
    Cl(f) = -0.00252003
    Cl(r) = 0.00252003

yPlus yPlus write:
    writing object yPlus
    patch atmosphere y+ : min = 0.421078, max = 1.9592, average = 0.704662
    patch walls y+ : min = 0.0378558, max = 0.253096, average = 0.0691984
    patch cylinder y+ : min = 0.0336697, max = 0.132852, average = 0.0779869

Time = 13.2

Courant Number mean: 1.60075 max: 7.67092
smoothSolver:  Solving for Ux, Initial residual = 0.0317475, Final residual = 8.7443e-06, No Iterations 18
smoothSolver:  Solving for Uy, Initial residual = 0.109062, Final residual = 9.91805e-06, No Iterations 22
GAMG:  Solving for p, Initial residual = 0.459849, Final residual = 0.0414333, No Iterations 2
time step continuity errors : sum local = 0.0007803, global = 3.49751e-05, cumulative = 3.20181e-05
GAMG:  Solving for p, Initial residual = 0.455386, Final residual = 7.6416e-07, No Iterations 21
time step continuity errors : sum local = 1.41002e-08, global = 1.05875e-09, cumulative = 3.20192e-05
ExecutionTime = 4.12 s  ClockTime = 4 s

forceCoeffs forceCoeffs_object write:
    Cm    = -0.00197006
    Cd    = 0.0187625
    Cl    = 1.17054e-19
    Cl(f) = -0.00197006
    Cl(r) = 0.00197006

Time = 13.4

Courant Number mean: 1.60134 max: 7.68983
smoothSolver:  Solving for Ux, Initial residual = 0.0316617, Final residual = 9.03892e-06, No Iterations 18
smoothSolver:  Solving for Uy, Initial residual = 0.109802, Final residual = 6.84313e-06, No Iterations 23
GAMG:  Solving for p, Initial residual = 0.476091, Final residual = 0.0404787, No Iterations 2
time step continuity errors : sum local = 0.000737729, global = -3.53453e-05, cumulative = -3.32611e-06
GAMG:  Solving for p, Initial residual = 0.58726, Final residual = 6.55801e-07, No Iterations 22
time step continuity errors : sum local = 9.32568e-09, global = -7.47949e-10, cumulative = -3.32685e-06
ExecutionTime = 4.16 s  ClockTime = 4 s

forceCoeffs forceCoeffs_object write:
    Cm    = -0.00250615
    Cd    = 0.0238681
    Cl    = 2.99121e-20
    Cl(f) = -0.00250615
    Cl(r) = 0.00250615

Time = 13.6

Courant Number mean: 1.60171 max: 7.65483
smoothSolver:  Solving for Ux, Initial residual = 0.0318298, Final residual = 8.26757e-06, No Iterations 18
smoothSolver:  Solving for Uy, Initial residual = 0.10966, Final residual = 9.29777e-06, No Iterations 22
GAMG:  Solving for p, Initial residual = 0.458329, Final residual = 0.0413973, No Iterations 2
time step continuity errors : sum local = 0.000784626, global = 3.53001e-05, cumulative = 3.19732e-05
GAMG:  Solving for p, Initial residual = 0.454285, Final residual = 7.67732e-07, No Iterations 21
time step continuity errors : sum local = 1.42321e-08, global = 1.06901e-09, cumulative = 3.19743e-05
ExecutionTime = 4.2 s  ClockTime = 4 s

forceCoeffs forceCoeffs_object write:
    Cm    = -0.00194442
    Cd    = 0.0185183
    Cl    = 1.04972e-19
    Cl(f) = -0.00194442
    Cl(r) = 0.00194442

Time = 13.8

Courant Number mean: 1.60225 max: 7.6648
smoothSolver:  Solving for Ux, Initial residual = 0.0316974, Final residual = 8.36183e-06, No Iterations 18
smoothSolver:  Solving for Uy, Initial residual = 0.110291, Final residual = 9.18322e-06, No Iterations 22
GAMG:  Solving for p, Initial residual = 0.473696, Final residual = 0.0403545, No Iterations 2
time step continuity errors : sum local = 0.000740467, global = -3.56398e-05, cumulative = -3.66549e-06
GAMG:  Solving for p, Initial residual = 0.584323, Final residual = 6.5127e-07, No Iterations 22
time step continuity errors : sum local = 9.31559e-09, global = -7.46051e-10, cumulative = -3.66623e-06
ExecutionTime = 4.25 s  ClockTime = 4 s

forceCoeffs forceCoeffs_object write:
    Cm    = -0.00248034
    Cd    = 0.0236223
    Cl    = 1.66733e-20
    Cl(f) = -0.00248034
    Cl(r) = 0.00248034

Time = 14

Courant Number mean: 1.60256 max: 7.61984
smoothSolver:  Solving for Ux, Initial residual = 0.0318253, Final residual = 7.47484e-06, No Iterations 18
smoothSolver:  Solving for Uy, Initial residual = 0.110246, Final residual = 8.31178e-06, No Iterations 22
GAMG:  Solving for p, Initial residual = 0.456873, Final residual = 0.0413314, No Iterations 2
time step continuity errors : sum local = 0.000786717, global = 3.55426e-05, cumulative = 3.18764e-05
GAMG:  Solving for p, Initial residual = 0.453405, Final residual = 7.73061e-07, No Iterations 21
time step continuity errors : sum local = 1.43563e-08, global = 1.078e-09, cumulative = 3.18775e-05
ExecutionTime = 4.38 s  ClockTime = 4 s

forceCoeffs forceCoeffs_object write:
    Cm    = -0.00191385
    Cd    = 0.0182271
    Cl    = 9.21413e-20
    Cl(f) = -0.00191385
    Cl(r) = 0.00191385

yPlus yPlus write:
    writing object yPlus
    patch atmosphere y+ : min = 0.410629, max = 1.95917, average = 0.690389
    patch walls y+ : min = 0.0440754, max = 0.253097, average = 0.0711938
    patch cylinder y+ : min = 0.0374529, max = 0.132467, average = 0.0789921

Time = 14.2

Courant Number mean: 1.60312 max: 7.62019
smoothSolver:  Solving for Ux, Initial residual = 0.0316378, Final residual = 7.41323e-06, No Iterations 18
smoothSolver:  Solving for Uy, Initial residual = 0.11067, Final residual = 8.04003e-06, No Iterations 22
GAMG:  Solving for p, Initial residual = 0.471723, Final residual = 0.0402464, No Iterations 2
time step continuity errors : sum local = 0.000741492, global = -3.58342e-05, cumulative = -3.95676e-06
GAMG:  Solving for p, Initial residual = 0.581828, Final residual = 6.47701e-07, No Iterations 22
time step continuity errors : sum local = 9.29265e-09, global = -7.42285e-10, cumulative = -3.9575e-06
ExecutionTime = 4.42 s  ClockTime = 4 s

forceCoeffs forceCoeffs_object write:
    Cm    = -0.00245362
    Cd    = 0.0233678
    Cl    = 3.70009e-21
    Cl(f) = -0.00245362
    Cl(r) = 0.00245362

Time = 14.4

Courant Number mean: 1.60344 max: 7.56617
smoothSolver:  Solving for Ux, Initial residual = 0.0317268, Final residual = 9.61846e-06, No Iterations 17
smoothSolver:  Solving for Uy, Initial residual = 0.110727, Final residual = 7.17324e-06, No Iterations 22
GAMG:  Solving for p, Initial residual = 0.455697, Final residual = 0.0412684, No Iterations 2
time step continuity errors : sum local = 0.00078711, global = 3.56693e-05, cumulative = 3.17118e-05
GAMG:  Solving for p, Initial residual = 0.452813, Final residual = 7.78595e-07, No Iterations 21
time step continuity errors : sum local = 1.44537e-08, global = 1.08461e-09, cumulative = 3.17129e-05
ExecutionTime = 4.46 s  ClockTime = 4 s

forceCoeffs forceCoeffs_object write:
    Cm    = -0.00188963
    Cd    = 0.0179964
    Cl    = 8.02268e-20
    Cl(f) = -0.00188963
    Cl(r) = 0.00188963

Time = 14.6

Courant Number mean: 1.60392 max: 7.55858
smoothSolver:  Solving for Ux, Initial residual = 0.0315184, Final residual = 9.44099e-06, No Iterations 17
smoothSolver:  Solving for Uy, Initial residual = 0.110977, Final residual = 6.82685e-06, No Iterations 22
GAMG:  Solving for p, Initial residual = 0.470257, Final residual = 0.0401482, No Iterations 2
time step continuity errors : sum local = 0.000741161, global = -3.591e-05, cumulative = -4.19705e-06
GAMG:  Solving for p, Initial residual = 0.580151, Final residual = 6.45538e-07, No Iterations 22
time step continuity errors : sum local = 9.26755e-09, global = -7.37658e-10, cumulative = -4.19779e-06
ExecutionTime = 4.5 s  ClockTime = 4 s

forceCoeffs forceCoeffs_object write:
    Cm    = -0.00243531
    Cd    = 0.0231934
    Cl    = -7.16556e-21
    Cl(f) = -0.00243531
    Cl(r) = 0.00243531

Time = 14.8

Courant Number mean: 1.60419 max: 7.49877
smoothSolver:  Solving for Ux, Initial residual = 0.0315844, Final residual = 8.39868e-06, No Iterations 17
smoothSolver:  Solving for Uy, Initial residual = 0.111141, Final residual = 8.91415e-06, No Iterations 21
GAMG:  Solving for p, Initial residual = 0.45491, Final residual = 0.041205, No Iterations 2
time step continuity errors : sum local = 0.00078638, global = 3.56819e-05, cumulative = 3.14841e-05
GAMG:  Solving for p, Initial residual = 0.452343, Final residual = 7.81559e-07, No Iterations 21
time step continuity errors : sum local = 1.44964e-08, global = 1.08639e-09, cumulative = 3.14852e-05
ExecutionTime = 4.54 s  ClockTime = 4 s

forceCoeffs forceCoeffs_object write:
    Cm    = -0.00187885
    Cd    = 0.0178938
    Cl    = 7.10774e-20
    Cl(f) = -0.00187885
    Cl(r) = 0.00187885

Time = 15

Courant Number mean: 1.60466 max: 7.48826
smoothSolver:  Solving for Ux, Initial residual = 0.0314105, Final residual = 8.22645e-06, No Iterations 17
smoothSolver:  Solving for Uy, Initial residual = 0.111297, Final residual = 8.44215e-06, No Iterations 21
GAMG:  Solving for p, Initial residual = 0.469421, Final residual = 0.0400598, No Iterations 2
time step continuity errors : sum local = 0.000740589, global = -3.58898e-05, cumulative = -4.4046e-06
GAMG:  Solving for p, Initial residual = 0.579067, Final residual = 6.47084e-07, No Iterations 22
time step continuity errors : sum local = 9.29343e-09, global = -7.3718e-10, cumulative = -4.40534e-06
ExecutionTime = 4.67 s  ClockTime = 4 s

forceCoeffs forceCoeffs_object write:
    Cm    = -0.00243143
    Cd    = 0.0231564
    Cl    = -1.42668e-20
    Cl(f) = -0.00243143
    Cl(r) = 0.00243143

yPlus yPlus write:
    writing object yPlus
    patch atmosphere y+ : min = 0.420471, max = 1.9592, average = 0.693734
    patch walls y+ : min = 0.03807, max = 0.253096, average = 0.0681479
    patch cylinder y+ : min = 0.0349673, max = 0.129633, average = 0.0772669

Time = 15.2

Courant Number mean: 1.60493 max: 7.42854
smoothSolver:  Solving for Ux, Initial residual = 0.0314838, Final residual = 7.42693e-06, No Iterations 17
smoothSolver:  Solving for Uy, Initial residual = 0.111572, Final residual = 7.54987e-06, No Iterations 21
GAMG:  Solving for p, Initial residual = 0.454521, Final residual = 0.0411515, No Iterations 2
time step continuity errors : sum local = 0.000786037, global = 3.56181e-05, cumulative = 3.12128e-05
GAMG:  Solving for p, Initial residual = 0.451655, Final residual = 7.79922e-07, No Iterations 21
time step continuity errors : sum local = 1.44791e-08, global = 1.08258e-09, cumulative = 3.12138e-05
ExecutionTime = 4.71 s  ClockTime = 4 s

forceCoeffs forceCoeffs_object write:
    Cm    = -0.00188557
    Cd    = 0.0179578
    Cl    = 6.63911e-20
    Cl(f) = -0.00188557
    Cl(r) = 0.00188557

Time = 15.4

Courant Number mean: 1.60542 max: 7.42114
smoothSolver:  Solving for Ux, Initial residual = 0.0313784, Final residual = 7.34525e-06, No Iterations 17
smoothSolver:  Solving for Uy, Initial residual = 0.111542, Final residual = 7.18146e-06, No Iterations 21
GAMG:  Solving for p, Initial residual = 0.468756, Final residual = 0.0399763, No Iterations 2
time step continuity errors : sum local = 0.000740623, global = -3.58324e-05, cumulative = -4.61858e-06
GAMG:  Solving for p, Initial residual = 0.577791, Final residual = 6.52254e-07, No Iterations 22
time step continuity errors : sum local = 9.38989e-09, global = -7.43298e-10, cumulative = -4.61933e-06
ExecutionTime = 4.75 s  ClockTime = 4 s

forceCoeffs forceCoeffs_object write:
    Cm    = -0.00244251
    Cd    = 0.023262
    Cl    = -1.62546e-20
    Cl(f) = -0.00244251
    Cl(r) = 0.00244251

Time = 15.6

Courant Number mean: 1.60579 max: 7.36807
smoothSolver:  Solving for Ux, Initial residual = 0.0314957, Final residual = 6.76696e-06, No Iterations 17
smoothSolver:  Solving for Uy, Initial residual = 0.111876, Final residual = 9.72909e-06, No Iterations 20
GAMG:  Solving for p, Initial residual = 0.454042, Final residual = 0.041209, No Iterations 2
time step continuity errors : sum local = 0.000788895, global = 3.55644e-05, cumulative = 3.0945e-05
GAMG:  Solving for p, Initial residual = 0.450051, Final residual = 7.72877e-07, No Iterations 21
time step continuity errors : sum local = 1.44135e-08, global = 1.0751e-09, cumulative = 3.09461e-05
ExecutionTime = 4.79 s  ClockTime = 4 s

forceCoeffs forceCoeffs_object write:
    Cm    = -0.00190864
    Cd    = 0.0181775
    Cl    = 6.72244e-20
    Cl(f) = -0.00190864
    Cl(r) = 0.00190864

Time = 15.8

Courant Number mean: 1.60646 max: 7.36987
smoothSolver:  Solving for Ux, Initial residual = 0.0314617, Final residual = 6.84366e-06, No Iterations 17
smoothSolver:  Solving for Uy, Initial residual = 0.111577, Final residual = 9.41307e-06, No Iterations 20
GAMG:  Solving for p, Initial residual = 0.467657, Final residual = 0.0399343, No Iterations 2
time step continuity errors : sum local = 0.000743382, global = -3.58175e-05, cumulative = -4.87135e-06
GAMG:  Solving for p, Initial residual = 0.575928, Final residual = 6.60735e-07, No Iterations 22
time step continuity errors : sum local = 9.56502e-09, global = -7.57278e-10, cumulative = -4.8721e-06
ExecutionTime = 4.84 s  ClockTime = 4 s

forceCoeffs forceCoeffs_object write:
    Cm    = -0.00247435
    Cd    = 0.0235653
    Cl    = -1.20479e-20
    Cl(f) = -0.00247435
    Cl(r) = 0.00247435

Time = 16

Courant Number mean: 1.60701 max: 7.32929
smoothSolver:  Solving for Ux, Initial residual = 0.0316422, Final residual = 9.75359e-06, No Iterations 16
smoothSolver:  Solving for Uy, Initial residual = 0.112178, Final residual = 8.81618e-06, No Iterations 20
GAMG:  Solving for p, Initial residual = 0.45322, Final residual = 0.0413609, No Iterations 2
time step continuity errors : sum local = 0.00079624, global = 3.56132e-05, cumulative = 3.07411e-05
GAMG:  Solving for p, Initial residual = 0.447982, Final residual = 7.61629e-07, No Iterations 21
time step continuity errors : sum local = 1.43223e-08, global = 1.06549e-09, cumulative = 3.07421e-05
ExecutionTime = 4.97 s  ClockTime = 5 s

forceCoeffs forceCoeffs_object write:
    Cm    = -0.00194821
    Cd    = 0.0185544
    Cl    = 7.47684e-20
    Cl(f) = -0.00194821
    Cl(r) = 0.00194821

yPlus yPlus write:
    writing object yPlus
    patch atmosphere y+ : min = 0.409463, max = 1.95917, average = 0.68039
    patch walls y+ : min = 0.0443095, max = 0.253097, average = 0.0703981
    patch cylinder y+ : min = 0.0323552, max = 0.129634, average = 0.0781877

Time = 16.2

Courant Number mean: 1.6078 max: 7.34572
smoothSolver:  Solving for Ux, Initial residual = 0.031668, Final residual = 6.69834e-06, No Iterations 17
smoothSolver:  Solving for Uy, Initial residual = 0.1118, Final residual = 8.74664e-06, No Iterations 20
GAMG:  Solving for p, Initial residual = 0.466495, Final residual = 0.0399855, No Iterations 2
time step continuity errors : sum local = 0.000750176, global = -3.59308e-05, cumulative = -5.18867e-06
GAMG:  Solving for p, Initial residual = 0.573776, Final residual = 6.682e-07, No Iterations 22
time step continuity errors : sum local = 9.7572e-09, global = -7.73413e-10, cumulative = -5.18945e-06
ExecutionTime = 5.01 s  ClockTime = 5 s

forceCoeffs forceCoeffs_object write:
    Cm    = -0.00251295
    Cd    = 0.0239328
    Cl    = -1.50507e-21
    Cl(f) = -0.00251295
    Cl(r) = 0.00251295

Time = 16.4

Courant Number mean: 1.60845 max: 7.32221
smoothSolver:  Solving for Ux, Initial residual = 0.0319145, Final residual = 9.78586e-06, No Iterations 16
smoothSolver:  Solving for Uy, Initial residual = 0.112893, Final residual = 8.45112e-06, No Iterations 20
GAMG:  Solving for p, Initial residual = 0.452288, Final residual = 0.0415099, No Iterations 2
time step continuity errors : sum local = 0.000805366, global = 3.57628e-05, cumulative = 3.05734e-05
GAMG:  Solving for p, Initial residual = 0.446286, Final residual = 7.5084e-07, No Iterations 21
time step continuity errors : sum local = 1.42506e-08, global = 1.05789e-09, cumulative = 3.05744e-05
ExecutionTime = 5.05 s  ClockTime = 5 s

forceCoeffs forceCoeffs_object write:
    Cm    = -0.00198217
    Cd    = 0.0188778
    Cl    = 8.87843e-20
    Cl(f) = -0.00198217
    Cl(r) = 0.00198217

Time = 16.6

Courant Number mean: 1.60932 max: 7.35692
smoothSolver:  Solving for Ux, Initial residual = 0.0319485, Final residual = 6.87639e-06, No Iterations 17
smoothSolver:  Solving for Uy, Initial residual = 0.112305, Final residual = 8.64906e-06, No Iterations 20
GAMG:  Solving for p, Initial residual = 0.465263, Final residual = 0.0401087, No Iterations 2
time step continuity errors : sum local = 0.000758712, global = -3.61058e-05, cumulative = -5.53132e-06
GAMG:  Solving for p, Initial residual = 0.571487, Final residual = 6.70408e-07, No Iterations 22
time step continuity errors : sum local = 9.8809e-09, global = -7.8426e-10, cumulative = -5.5321e-06
ExecutionTime = 5.09 s  ClockTime = 5 s

forceCoeffs forceCoeffs_object write:
    Cm    = -0.00253739
    Cd    = 0.0241656
    Cl    = 1.53685e-20
    Cl(f) = -0.00253739
    Cl(r) = 0.00253739

Time = 16.8

Courant Number mean: 1.61006 max: 7.35228
smoothSolver:  Solving for Ux, Initial residual = 0.0322206, Final residual = 6.80608e-06, No Iterations 17
smoothSolver:  Solving for Uy, Initial residual = 0.113846, Final residual = 8.66525e-06, No Iterations 20
GAMG:  Solving for p, Initial residual = 0.451023, Final residual = 0.0415784, No Iterations 2
time step continuity errors : sum local = 0.000813213, global = 3.59419e-05, cumulative = 3.04098e-05
GAMG:  Solving for p, Initial residual = 0.444608, Final residual = 7.41264e-07, No Iterations 21
time step continuity errors : sum local = 1.41783e-08, global = 1.05151e-09, cumulative = 3.04108e-05
ExecutionTime = 5.13 s  ClockTime = 5 s

forceCoeffs forceCoeffs_object write:
    Cm    = -0.0019969
    Cd    = 0.0190181
    Cl    = 1.09138e-19
    Cl(f) = -0.0019969
    Cl(r) = 0.0019969

Time = 17

Courant Number mean: 1.61095 max: 7.40567
smoothSolver:  Solving for Ux, Initial residual = 0.0321874, Final residual = 7.44582e-06, No Iterations 17
smoothSolver:  Solving for Uy, Initial residual = 0.113057, Final residual = 9.23877e-06, No Iterations 20
GAMG:  Solving for p, Initial residual = 0.463684, Final residual = 0.0401881, No Iterations 2
time step continuity errors : sum local = 0.000765807, global = -3.62599e-05, cumulative = -5.84909e-06
GAMG:  Solving for p, Initial residual = 0.568524, Final residual = 6.66117e-07, No Iterations 22
time step continuity errors : sum local = 9.89407e-09, global = -7.86318e-10, cumulative = -5.84988e-06
ExecutionTime = 5.26 s  ClockTime = 5 s

forceCoeffs forceCoeffs_object write:
    Cm    = -0.00254497
    Cd    = 0.0242378
    Cl    = 3.74924e-20
    Cl(f) = -0.00254497
    Cl(r) = 0.00254497

yPlus yPlus write:
    writing object yPlus
    patch atmosphere y+ : min = 0.420424, max = 1.9592, average = 0.685935
[...]
GAMG:  Solving for p, Initial residual = 0.568023, Final residual = 6.4165e-07, No Iterations 22
time step continuity errors : sum local = 9.30049e-09, global = -7.35358e-10, cumulative = -8.97785e-05
ExecutionTime = 29.16 s  ClockTime = 29 s

forceCoeffs forceCoeffs_object write:
    Cm    = -0.00269768
    Cd    = 0.0256922
    Cl    = 1.76597e-19
    Cl(f) = -0.00269768
    Cl(r) = 0.00269768

Time = 96

Courant Number mean: 1.6533 max: 8.01873
smoothSolver:  Solving for Ux, Initial residual = 0.0390799, Final residual = 8.93261e-06, No Iterations 23
smoothSolver:  Solving for Uy, Initial residual = 0.12514, Final residual = 8.64964e-06, No Iterations 27
GAMG:  Solving for p, Initial residual = 0.417014, Final residual = 0.0375755, No Iterations 2
time step continuity errors : sum local = 0.000780798, global = 4.12232e-05, cumulative = -4.85553e-05
GAMG:  Solving for p, Initial residual = 0.414859, Final residual = 6.9088e-07, No Iterations 21
time step continuity errors : sum local = 1.37e-08, global = 1.03464e-09, cumulative = -4.85543e-05
ExecutionTime = 29.29 s  ClockTime = 29 s

forceCoeffs forceCoeffs_object write:
    Cm    = -0.00228986
    Cd    = 0.0218082
    Cl    = 2.68752e-19
    Cl(f) = -0.00228986
    Cl(r) = 0.00228986

yPlus yPlus write:
    writing object yPlus
    patch atmosphere y+ : min = 0.397457, max = 1.95917, average = 0.674609
    patch walls y+ : min = 0.0423016, max = 0.253097, average = 0.069544
    patch cylinder y+ : min = 0.0292765, max = 0.142972, average = 0.0816412

Time = 96.2

Courant Number mean: 1.65329 max: 8.17304
smoothSolver:  Solving for Ux, Initial residual = 0.0385691, Final residual = 8.10753e-06, No Iterations 26
smoothSolver:  Solving for Uy, Initial residual = 0.123449, Final residual = 9.04971e-06, No Iterations 30
GAMG:  Solving for p, Initial residual = 0.463976, Final residual = 0.0393839, No Iterations 2
time step continuity errors : sum local = 0.000730507, global = -4.13471e-05, cumulative = -8.99014e-05
GAMG:  Solving for p, Initial residual = 0.563363, Final residual = 5.78398e-07, No Iterations 22
time step continuity errors : sum local = 8.31448e-09, global = -6.55992e-10, cumulative = -8.99021e-05
ExecutionTime = 29.33 s  ClockTime = 29 s

forceCoeffs forceCoeffs_object write:
    Cm    = -0.00274962
    Cd    = 0.0261868
    Cl    = 1.79916e-19
    Cl(f) = -0.00274962
    Cl(r) = 0.00274962

Time = 96.4

Courant Number mean: 1.65321 max: 8.26565
smoothSolver:  Solving for Ux, Initial residual = 0.0383756, Final residual = 8.70935e-06, No Iterations 28
smoothSolver:  Solving for Uy, Initial residual = 0.122822, Final residual = 8.87604e-06, No Iterations 33
GAMG:  Solving for p, Initial residual = 0.417578, Final residual = 0.03721, No Iterations 2
time step continuity errors : sum local = 0.000763429, global = 4.1226e-05, cumulative = -4.86761e-05
GAMG:  Solving for p, Initial residual = 0.415465, Final residual = 6.8234e-07, No Iterations 21
time step continuity errors : sum local = 1.33357e-08, global = 1.01992e-09, cumulative = -4.86751e-05
ExecutionTime = 29.38 s  ClockTime = 29 s

forceCoeffs forceCoeffs_object write:
    Cm    = -0.0023754
    Cd    = 0.0226229
    Cl    = 2.58735e-19
    Cl(f) = -0.0023754
    Cl(r) = 0.0023754

Time = 96.6

Courant Number mean: 1.65319 max: 8.37666
smoothSolver:  Solving for Ux, Initial residual = 0.0380082, Final residual = 8.55998e-06, No Iterations 31
smoothSolver:  Solving for Uy, Initial residual = 0.121234, Final residual = 9.90625e-06, No Iterations 36
GAMG:  Solving for p, Initial residual = 0.464836, Final residual = 0.0393534, No Iterations 2
time step continuity errors : sum local = 0.000722188, global = -4.16006e-05, cumulative = -9.02757e-05
GAMG:  Solving for p, Initial residual = 0.562755, Final residual = 5.38669e-07, No Iterations 22
time step continuity errors : sum local = 7.68774e-09, global = -6.08928e-10, cumulative = -9.02763e-05
ExecutionTime = 29.43 s  ClockTime = 29 s

forceCoeffs forceCoeffs_object write:
    Cm    = -0.00286013
    Cd    = 0.0272393
    Cl    = 1.556e-19
    Cl(f) = -0.00286013
    Cl(r) = 0.00286013

Time = 96.8

Courant Number mean: 1.65309 max: 8.42215
smoothSolver:  Solving for Ux, Initial residual = 0.0377973, Final residual = 8.28812e-06, No Iterations 33
smoothSolver:  Solving for Uy, Initial residual = 0.121211, Final residual = 8.69284e-06, No Iterations 39
GAMG:  Solving for p, Initial residual = 0.417541, Final residual = 0.0375617, No Iterations 2
time step continuity errors : sum local = 0.000766388, global = 4.11849e-05, cumulative = -4.90914e-05
GAMG:  Solving for p, Initial residual = 0.413161, Final residual = 6.8305e-07, No Iterations 21
time step continuity errors : sum local = 1.33903e-08, global = 1.03708e-09, cumulative = -4.90904e-05
ExecutionTime = 29.48 s  ClockTime = 29 s

forceCoeffs forceCoeffs_object write:
    Cm    = -0.00251327
    Cd    = 0.0239359
    Cl    = 2.25062e-19
    Cl(f) = -0.00251327
    Cl(r) = 0.00251327

Time = 97

Courant Number mean: 1.65309 max: 8.4842
smoothSolver:  Solving for Ux, Initial residual = 0.0378175, Final residual = 8.40047e-06, No Iterations 35
smoothSolver:  Solving for Uy, Initial residual = 0.120345, Final residual = 9.52498e-06, No Iterations 41
GAMG:  Solving for p, Initial residual = 0.463665, Final residual = 0.039906, No Iterations 2
time step continuity errors : sum local = 0.00073456, global = -4.19397e-05, cumulative = -9.10301e-05
GAMG:  Solving for p, Initial residual = 0.562999, Final residual = 5.14659e-07, No Iterations 22
time step continuity errors : sum local = 7.38925e-09, global = -5.8936e-10, cumulative = -9.10307e-05
ExecutionTime = 29.62 s  ClockTime = 29 s

forceCoeffs forceCoeffs_object write:
    Cm    = -0.00300092
    Cd    = 0.0285802
    Cl    = 1.16293e-19
    Cl(f) = -0.00300092
    Cl(r) = 0.00300092

yPlus yPlus write:
    writing object yPlus
    patch atmosphere y+ : min = 0.408215, max = 1.95919, average = 0.685194
    patch walls y+ : min = 0.0363829, max = 0.253096, average = 0.0666694
    patch cylinder y+ : min = 0.0281366, max = 0.145467, average = 0.0838522

Time = 97.2

Courant Number mean: 1.6531 max: 8.4817
smoothSolver:  Solving for Ux, Initial residual = 0.0378554, Final residual = 8.68587e-06, No Iterations 35
smoothSolver:  Solving for Uy, Initial residual = 0.121282, Final residual = 8.6822e-06, No Iterations 42
GAMG:  Solving for p, Initial residual = 0.417271, Final residual = 0.0382098, No Iterations 2
time step continuity errors : sum local = 0.000785887, global = 4.14247e-05, cumulative = -4.96059e-05
GAMG:  Solving for p, Initial residual = 0.411161, Final residual = 6.90693e-07, No Iterations 21
time step continuity errors : sum local = 1.38154e-08, global = 1.0791e-09, cumulative = -4.96049e-05
ExecutionTime = 29.66 s  ClockTime = 29 s

forceCoeffs forceCoeffs_object write:
    Cm    = -0.00261906
    Cd    = 0.0249434
    Cl    = 1.80435e-19
    Cl(f) = -0.00261906
    Cl(r) = 0.00261906

Time = 97.4

Courant Number mean: 1.65322 max: 8.49692
smoothSolver:  Solving for Ux, Initial residual = 0.0383637, Final residual = 8.66036e-06, No Iterations 35
smoothSolver:  Solving for Uy, Initial residual = 0.121259, Final residual = 8.81994e-06, No Iterations 42
GAMG:  Solving for p, Initial residual = 0.46257, Final residual = 0.0403417, No Iterations 2
time step continuity errors : sum local = 0.000753243, global = -4.26646e-05, cumulative = -9.22694e-05
GAMG:  Solving for p, Initial residual = 0.563022, Final residual = 5.13697e-07, No Iterations 22
time step continuity errors : sum local = 7.51003e-09, global = -6.01418e-10, cumulative = -9.227e-05
ExecutionTime = 29.71 s  ClockTime = 29 s

forceCoeffs forceCoeffs_object write:
    Cm    = -0.00303911
    Cd    = 0.0289439
    Cl    = 6.32622e-20
    Cl(f) = -0.00303911
    Cl(r) = 0.00303911

Time = 97.6

Courant Number mean: 1.65325 max: 8.44684
smoothSolver:  Solving for Ux, Initial residual = 0.038647, Final residual = 9.80838e-06, No Iterations 32
smoothSolver:  Solving for Uy, Initial residual = 0.123329, Final residual = 8.21177e-06, No Iterations 40
GAMG:  Solving for p, Initial residual = 0.414785, Final residual = 0.0384184, No Iterations 2
time step continuity errors : sum local = 0.000803767, global = 4.23178e-05, cumulative = -4.99522e-05
GAMG:  Solving for p, Initial residual = 0.407371, Final residual = 6.9846e-07, No Iterations 21
time step continuity errors : sum local = 1.43189e-08, global = 1.12029e-09, cumulative = -4.99511e-05
ExecutionTime = 29.75 s  ClockTime = 29 s

forceCoeffs forceCoeffs_object write:
    Cm    = -0.00255007
    Cd    = 0.0242864
    Cl    = 1.20145e-19
    Cl(f) = -0.00255007
    Cl(r) = 0.00255007

Time = 97.8

Courant Number mean: 1.65338 max: 8.41511
smoothSolver:  Solving for Ux, Initial residual = 0.0392133, Final residual = 9.89947e-06, No Iterations 30
smoothSolver:  Solving for Uy, Initial residual = 0.123935, Final residual = 8.2065e-06, No Iterations 38
GAMG:  Solving for p, Initial residual = 0.456886, Final residual = 0.0401237, No Iterations 2
time step continuity errors : sum local = 0.00076357, global = -4.36558e-05, cumulative = -9.36068e-05
GAMG:  Solving for p, Initial residual = 0.557003, Final residual = 5.11133e-07, No Iterations 22
time step continuity errors : sum local = 7.61366e-09, global = -6.08037e-10, cumulative = -9.36075e-05
ExecutionTime = 29.8 s  ClockTime = 29 s

forceCoeffs forceCoeffs_object write:
    Cm    = -0.00288582
    Cd    = 0.027484
    Cl    = -3.51571e-21
    Cl(f) = -0.00288582
    Cl(r) = 0.00288582

Time = 98

Courant Number mean: 1.65341 max: 8.3163
smoothSolver:  Solving for Ux, Initial residual = 0.039329, Final residual = 9.17749e-06, No Iterations 27
smoothSolver:  Solving for Uy, Initial residual = 0.125862, Final residual = 8.95003e-06, No Iterations 34
GAMG:  Solving for p, Initial residual = 0.408737, Final residual = 0.0379279, No Iterations 2
time step continuity errors : sum local = 0.000806427, global = 4.3436e-05, cumulative = -5.01715e-05
GAMG:  Solving for p, Initial residual = 0.403743, Final residual = 7.1533e-07, No Iterations 21
time step continuity errors : sum local = 1.47887e-08, global = 1.14997e-09, cumulative = -5.01703e-05
ExecutionTime = 29.93 s  ClockTime = 30 s

forceCoeffs forceCoeffs_object write:
    Cm    = -0.00232021
    Cd    = 0.0220973
    Cl    = 5.25378e-20
    Cl(f) = -0.00232021
    Cl(r) = 0.00232021

yPlus yPlus write:
    writing object yPlus
    patch atmosphere y+ : min = 0.396595, max = 1.95917, average = 0.675416
    patch walls y+ : min = 0.0423797, max = 0.253096, average = 0.0694856
    patch cylinder y+ : min = 0.0289791, max = 0.141412, average = 0.0877877

Time = 98.2

Courant Number mean: 1.65357 max: 8.23777
smoothSolver:  Solving for Ux, Initial residual = 0.0395885, Final residual = 9.79593e-06, No Iterations 24
smoothSolver:  Solving for Uy, Initial residual = 0.12565, Final residual = 8.36549e-06, No Iterations 32
GAMG:  Solving for p, Initial residual = 0.450419, Final residual = 0.039408, No Iterations 2
time step continuity errors : sum local = 0.000757575, global = -4.43609e-05, cumulative = -9.45312e-05
GAMG:  Solving for p, Initial residual = 0.550349, Final residual = 5.01438e-07, No Iterations 22
time step continuity errors : sum local = 7.49474e-09, global = -5.92265e-10, cumulative = -9.45318e-05
ExecutionTime = 29.98 s  ClockTime = 30 s

forceCoeffs forceCoeffs_object write:
    Cm    = -0.00263879
    Cd    = 0.0251314
    Cl    = -6.799e-20
    Cl(f) = -0.00263879
    Cl(r) = 0.00263879

Time = 98.4

Courant Number mean: 1.65357 max: 8.09478
smoothSolver:  Solving for Ux, Initial residual = 0.0393302, Final residual = 8.5319e-06, No Iterations 22
smoothSolver:  Solving for Uy, Initial residual = 0.126329, Final residual = 9.32501e-06, No Iterations 29
GAMG:  Solving for p, Initial residual = 0.404167, Final residual = 0.0371539, No Iterations 2
time step continuity errors : sum local = 0.000793031, global = 4.40991e-05, cumulative = -5.04326e-05
GAMG:  Solving for p, Initial residual = 0.402847, Final residual = 7.35468e-07, No Iterations 21
time step continuity errors : sum local = 1.50541e-08, global = 1.15566e-09, cumulative = -5.04315e-05
ExecutionTime = 30.02 s  ClockTime = 30 s

forceCoeffs forceCoeffs_object write:
    Cm    = -0.00209147
    Cd    = 0.0199188
    Cl    = -3.09505e-21
    Cl(f) = -0.00209147
    Cl(r) = 0.00209147

Time = 98.6

Courant Number mean: 1.6536 max: 7.9801
smoothSolver:  Solving for Ux, Initial residual = 0.0393727, Final residual = 8.0052e-06, No Iterations 21
smoothSolver:  Solving for Uy, Initial residual = 0.12511, Final residual = 8.51092e-06, No Iterations 28
GAMG:  Solving for p, Initial residual = 0.448154, Final residual = 0.0386435, No Iterations 2
time step continuity errors : sum local = 0.000740841, global = -4.42788e-05, cumulative = -9.47103e-05
GAMG:  Solving for p, Initial residual = 0.549667, Final residual = 5.2152e-07, No Iterations 22
time step continuity errors : sum local = 7.71422e-09, global = -5.99478e-10, cumulative = -9.47109e-05
ExecutionTime = 30.06 s  ClockTime = 30 s

forceCoeffs forceCoeffs_object write:
    Cm    = -0.00246504
    Cd    = 0.0234766
    Cl    = -1.10673e-19
    Cl(f) = -0.00246504
    Cl(r) = 0.00246504

Time = 98.8

Courant Number mean: 1.65342 max: 7.81012
smoothSolver:  Solving for Ux, Initial residual = 0.0388929, Final residual = 9.4737e-06, No Iterations 19
smoothSolver:  Solving for Uy, Initial residual = 0.125029, Final residual = 8.18714e-06, No Iterations 26
GAMG:  Solving for p, Initial residual = 0.404733, Final residual = 0.0365624, No Iterations 2
time step continuity errors : sum local = 0.00077468, global = 4.37759e-05, cumulative = -5.0935e-05
GAMG:  Solving for p, Initial residual = 0.406678, Final residual = 7.52237e-07, No Iterations 21
time step continuity errors : sum local = 1.51198e-08, global = 1.13899e-09, cumulative = -5.09338e-05
ExecutionTime = 30.1 s  ClockTime = 30 s

forceCoeffs forceCoeffs_object write:
    Cm    = -0.00199085
    Cd    = 0.0189605
    Cl    = -3.36727e-20
    Cl(f) = -0.00199085
    Cl(r) = 0.00199085

Time = 99

Courant Number mean: 1.65328 max: 7.68098
smoothSolver:  Solving for Ux, Initial residual = 0.0389631, Final residual = 9.16179e-06, No Iterations 18
smoothSolver:  Solving for Uy, Initial residual = 0.12348, Final residual = 8.0458e-06, No Iterations 24
GAMG:  Solving for p, Initial residual = 0.451201, Final residual = 0.0381569, No Iterations 2
time step continuity errors : sum local = 0.00072372, global = -4.3452e-05, cumulative = -9.43858e-05
GAMG:  Solving for p, Initial residual = 0.554689, Final residual = 5.67372e-07, No Iterations 22
time step continuity errors : sum local = 8.26351e-09, global = -6.31815e-10, cumulative = -9.43864e-05
ExecutionTime = 30.23 s  ClockTime = 30 s

forceCoeffs forceCoeffs_object write:
    Cm    = -0.00242775
    Cd    = 0.0231215
    Cl    = -1.26821e-19
    Cl(f) = -0.00242775
    Cl(r) = 0.00242775

yPlus yPlus write:
    writing object yPlus
    patch atmosphere y+ : min = 0.402656, max = 1.9592, average = 0.682476
    patch walls y+ : min = 0.0367447, max = 0.253094, average = 0.0669124
    patch cylinder y+ : min = 0.0324398, max = 0.131507, average = 0.0803572

Time = 99.2

Courant Number mean: 1.65298 max: 7.51084
smoothSolver:  Solving for Ux, Initial residual = 0.0384689, Final residual = 8.70661e-06, No Iterations 17
smoothSolver:  Solving for Uy, Initial residual = 0.123229, Final residual = 8.95158e-06, No Iterations 21
GAMG:  Solving for p, Initial residual = 0.4092, Final residual = 0.0363445, No Iterations 2
time step continuity errors : sum local = 0.00076087, global = 4.27272e-05, cumulative = -5.16592e-05
GAMG:  Solving for p, Initial residual = 0.411047, Final residual = 7.58234e-07, No Iterations 21
time step continuity errors : sum local = 1.50474e-08, global = 1.11095e-09, cumulative = -5.16581e-05
ExecutionTime = 30.27 s  ClockTime = 30 s

forceCoeffs forceCoeffs_object write:
    Cm    = -0.00202905
    Cd    = 0.0193243
    Cl    = -4.08362e-20
    Cl(f) = -0.00202905
    Cl(r) = 0.00202905

Time = 99.4

Courant Number mean: 1.6528 max: 7.39556
smoothSolver:  Solving for Ux, Initial residual = 0.0385972, Final residual = 7.70436e-06, No Iterations 17
smoothSolver:  Solving for Uy, Initial residual = 0.121695, Final residual = 8.36853e-06, No Iterations 20
GAMG:  Solving for p, Initial residual = 0.456859, Final residual = 0.0380831, No Iterations 2
time step continuity errors : sum local = 0.00071475, global = -4.23116e-05, cumulative = -9.39697e-05
GAMG:  Solving for p, Initial residual = 0.561946, Final residual = 6.22586e-07, No Iterations 22
time step continuity errors : sum local = 8.96855e-09, global = -6.79952e-10, cumulative = -9.39703e-05
ExecutionTime = 30.31 s  ClockTime = 30 s

forceCoeffs forceCoeffs_object write:
    Cm    = -0.00251471
    Cd    = 0.0239497
    Cl    = -1.22424e-19
    Cl(f) = -0.00251471
    Cl(r) = 0.00251471

Time = 99.6

Courant Number mean: 1.65262 max: 7.25384
smoothSolver:  Solving for Ux, Initial residual = 0.0381467, Final residual = 9.66445e-06, No Iterations 16
smoothSolver:  Solving for Uy, Initial residual = 0.121718, Final residual = 8.97668e-06, No Iterations 19
GAMG:  Solving for p, Initial residual = 0.414726, Final residual = 0.0368364, No Iterations 2
time step continuity errors : sum local = 0.000764223, global = 4.14568e-05, cumulative = -5.25135e-05
GAMG:  Solving for p, Initial residual = 0.413525, Final residual = 7.54849e-07, No Iterations 21
time step continuity errors : sum local = 1.49656e-08, global = 1.08603e-09, cumulative = -5.25125e-05
ExecutionTime = 30.35 s  ClockTime = 30 s

forceCoeffs forceCoeffs_object write:
    Cm    = -0.00217217
    Cd    = 0.0206873
    Cl    = -3.03059e-20
    Cl(f) = -0.00217217
    Cl(r) = 0.00217217

Time = 99.8

Courant Number mean: 1.6526 max: 7.17879
smoothSolver:  Solving for Ux, Initial residual = 0.0384195, Final residual = 9.41928e-06, No Iterations 16
smoothSolver:  Solving for Uy, Initial residual = 0.120837, Final residual = 7.71917e-06, No Iterations 19
GAMG:  Solving for p, Initial residual = 0.462191, Final residual = 0.0389338, No Iterations 2
time step continuity errors : sum local = 0.000727091, global = -4.14143e-05, cumulative = -9.39267e-05
GAMG:  Solving for p, Initial residual = 0.568468, Final residual = 6.74789e-07, No Iterations 22
time step continuity errors : sum local = 9.69194e-09, global = -7.3923e-10, cumulative = -9.39275e-05
ExecutionTime = 30.39 s  ClockTime = 30 s

forceCoeffs forceCoeffs_object write:
    Cm    = -0.00269247
    Cd    = 0.0256426
    Cl    = -1.01129e-19
    Cl(f) = -0.00269247
    Cl(r) = 0.00269247

Time = 100

Courant Number mean: 1.65254 max: 7.0899
smoothSolver:  Solving for Ux, Initial residual = 0.0382354, Final residual = 8.80954e-06, No Iterations 16
smoothSolver:  Solving for Uy, Initial residual = 0.121394, Final residual = 7.36067e-06, No Iterations 19
GAMG:  Solving for p, Initial residual = 0.419366, Final residual = 0.038021, No Iterations 2
time step continuity errors : sum local = 0.000788261, global = 4.05249e-05, cumulative = -5.34026e-05
GAMG:  Solving for p, Initial residual = 0.415041, Final residual = 7.50616e-07, No Iterations 21
time step continuity errors : sum local = 1.50475e-08, global = 1.0877e-09, cumulative = -5.34015e-05
ExecutionTime = 30.52 s  ClockTime = 30 s

forceCoeffs forceCoeffs_object write:
    Cm    = -0.00237451
    Cd    = 0.0226144
    Cl    = -1.77337e-21
    Cl(f) = -0.00237451
    Cl(r) = 0.00237451

yPlus yPlus write:
    writing object yPlus
    patch atmosphere y+ : min = 0.391287, max = 1.95917, average = 0.671439
    patch walls y+ : min = 0.0427903, max = 0.253095, average = 0.0697804
    patch cylinder y+ : min = 0.0328181, max = 0.12786, average = 0.0820445

End

