/*---------------------------------------------------------------------------*\
  =========                 |
  \\      /  F ield         | OpenFOAM: The Open Source CFD Toolbox
   \\    /   O peration     | Website:  https://openfoam.org
    \\  /    A nd           | Version:  7
     \\/     M anipulation  |
\*---------------------------------------------------------------------------*/
Build  : 7-3bcbaf946ae9
Exec   : simpleFoam
Date   : Jul 19 2022
Time   : 10:25:11
Host   : "Lubuntu"
PID    : 239188
I/O    : uncollated
Case   : /home/ensm_student/Documents/CFD/Rechnerubung/Week07/Parameterstudien_mit_RANS/data/raw/AOA_10
nProcs : 1
sigFpe : Enabling floating point exception trapping (FOAM_SIGFPE).
fileModificationChecking : Monitoring run-time modified files using timeStampMaster (fileModificationSkew 10)
allowSystemOperations : Allowing user-supplied system call operations

// * * * * * * * * * * * * * * * * * * * * * * * * * * * * * * * * * * * * * //
Create time

Using #calcEntry at line 21 in file "/home/ensm_student/Documents/CFD/Rechnerubung/Week07/Parameterstudien_mit_RANS/data/raw/AOA_10/system/controlDict.functions"
Using #codeStream with "/home/ensm_student/Documents/CFD/Rechnerubung/Week07/Parameterstudien_mit_RANS/data/raw/AOA_10/dynamicCode/platforms/linux64GccDPInt32Opt/lib/libcodeStream_66a6017fefb3f5454f878ae49cd189ba867fc547.so"
Using #calcEntry at line 27 in file "/home/ensm_student/Documents/CFD/Rechnerubung/Week07/Parameterstudien_mit_RANS/data/raw/AOA_10/system/controlDict.functions"
Using #codeStream with "/home/ensm_student/Documents/CFD/Rechnerubung/Week07/Parameterstudien_mit_RANS/data/raw/AOA_10/dynamicCode/platforms/linux64GccDPInt32Opt/lib/libcodeStream_8c6314a787acd8194b0cf8679b363212e627d5db.so"
Using #calcEntry at line 32 in file "/home/ensm_student/Documents/CFD/Rechnerubung/Week07/Parameterstudien_mit_RANS/data/raw/AOA_10/system/controlDict.functions"
Using #codeStream with "/home/ensm_student/Documents/CFD/Rechnerubung/Week07/Parameterstudien_mit_RANS/data/raw/AOA_10/dynamicCode/platforms/linux64GccDPInt32Opt/lib/libcodeStream_844c9c693dfc906dd46778e4cc636c418aa6a075.so"
Using #calcEntry at line 34 in file "/home/ensm_student/Documents/CFD/Rechnerubung/Week07/Parameterstudien_mit_RANS/data/raw/AOA_10/system/controlDict.functions"
Using #codeStream with "/home/ensm_student/Documents/CFD/Rechnerubung/Week07/Parameterstudien_mit_RANS/data/raw/AOA_10/dynamicCode/platforms/linux64GccDPInt32Opt/lib/libcodeStream_8b9df0e8700141fc89ea5daab014598dae76de38.so"
Using #calcEntry at line 22 in file "/home/ensm_student/Documents/CFD/Rechnerubung/Week07/Parameterstudien_mit_RANS/data/raw/AOA_10/system/controlDict.functions"
Using #codeStream with "/home/ensm_student/Documents/CFD/Rechnerubung/Week07/Parameterstudien_mit_RANS/data/raw/AOA_10/dynamicCode/platforms/linux64GccDPInt32Opt/lib/libcodeStream_592c15db148b0c950ea964f207c41a5a781a1d6e.so"
Using #calcEntry at line 22 in file "/home/ensm_student/Documents/CFD/Rechnerubung/Week07/Parameterstudien_mit_RANS/data/raw/AOA_10/system/controlDict.functions"
Using #codeStream with "/home/ensm_student/Documents/CFD/Rechnerubung/Week07/Parameterstudien_mit_RANS/data/raw/AOA_10/dynamicCode/platforms/linux64GccDPInt32Opt/lib/libcodeStream_dabea6109f2eae7391947579d9b3f42eadaa149d.so"
Using #calcEntry at line 23 in file "/home/ensm_student/Documents/CFD/Rechnerubung/Week07/Parameterstudien_mit_RANS/data/raw/AOA_10/system/controlDict.functions"
Using #calcEntry at line 23 in file "/home/ensm_student/Documents/CFD/Rechnerubung/Week07/Parameterstudien_mit_RANS/data/raw/AOA_10/system/controlDict.functions"
Using #codeStream with "/home/ensm_student/Documents/CFD/Rechnerubung/Week07/Parameterstudien_mit_RANS/data/raw/AOA_10/dynamicCode/platforms/linux64GccDPInt32Opt/lib/libcodeStream_f66654342b75bbdfc19bd491203d1c6c8f3e6c54.so"
Create mesh for time = 0


SIMPLE: Convergence criteria found
        p: tolerance 0.01
        U: tolerance 0.02
        "(k|omega)": tolerance 0.001

Reading field p

Reading field U

Using #calcEntry at line 21 in file "/home/ensm_student/Documents/CFD/Rechnerubung/Week07/Parameterstudien_mit_RANS/data/raw/AOA_10/0/U"
Using #calcEntry at line 27 in file "/home/ensm_student/Documents/CFD/Rechnerubung/Week07/Parameterstudien_mit_RANS/data/raw/AOA_10/0/U"
Using #calcEntry at line 32 in file "/home/ensm_student/Documents/CFD/Rechnerubung/Week07/Parameterstudien_mit_RANS/data/raw/AOA_10/0/U"
Using #calcEntry at line 34 in file "/home/ensm_student/Documents/CFD/Rechnerubung/Week07/Parameterstudien_mit_RANS/data/raw/AOA_10/0/U"
Using #calcEntry at line 25 in file "/home/ensm_student/Documents/CFD/Rechnerubung/Week07/Parameterstudien_mit_RANS/data/raw/AOA_10/0/U"
Using #codeStream with "/home/ensm_student/Documents/CFD/Rechnerubung/Week07/Parameterstudien_mit_RANS/data/raw/AOA_10/dynamicCode/platforms/linux64GccDPInt32Opt/lib/libcodeStream_d41a11768906ffeafd979c1456bb98a96076d266.so"
Creating new library in "dynamicCode/_d41a11768906ffeafd979c1456bb98a96076d266/platforms/linux64GccDPInt32Opt/lib/libcodeStream_d41a11768906ffeafd979c1456bb98a96076d266.so"
Invoking "wmake -s libso /home/ensm_student/Documents/CFD/Rechnerubung/Week07/Parameterstudien_mit_RANS/data/raw/AOA_10/dynamicCode/_d41a11768906ffeafd979c1456bb98a96076d266"
wmake libso /home/ensm_student/Documents/CFD/Rechnerubung/Week07/Parameterstudien_mit_RANS/data/raw/AOA_10/dynamicCode/_d41a11768906ffeafd979c1456bb98a96076d266
    wmkdep: codeStreamTemplate.C
    Ctoo: codeStreamTemplate.C
    ld: /home/ensm_student/Documents/CFD/Rechnerubung/Week07/Parameterstudien_mit_RANS/data/raw/AOA_10/dynamicCode/_d41a11768906ffeafd979c1456bb98a96076d266/../platforms/linux64GccDPInt32Opt/lib/libcodeStream_d41a11768906ffeafd979c1456bb98a96076d266.so
Using #calcEntry at line 25 in file "/home/ensm_student/Documents/CFD/Rechnerubung/Week07/Parameterstudien_mit_RANS/data/raw/AOA_10/0/U"
Using #codeStream with "/home/ensm_student/Documents/CFD/Rechnerubung/Week07/Parameterstudien_mit_RANS/data/raw/AOA_10/dynamicCode/platforms/linux64GccDPInt32Opt/lib/libcodeStream_2b62c01eb76c9a1a618e4a811a108e3cd6783aa5.so"
Creating new library in "dynamicCode/_2b62c01eb76c9a1a618e4a811a108e3cd6783aa5/platforms/linux64GccDPInt32Opt/lib/libcodeStream_2b62c01eb76c9a1a618e4a811a108e3cd6783aa5.so"
Invoking "wmake -s libso /home/ensm_student/Documents/CFD/Rechnerubung/Week07/Parameterstudien_mit_RANS/data/raw/AOA_10/dynamicCode/_2b62c01eb76c9a1a618e4a811a108e3cd6783aa5"
wmake libso /home/ensm_student/Documents/CFD/Rechnerubung/Week07/Parameterstudien_mit_RANS/data/raw/AOA_10/dynamicCode/_2b62c01eb76c9a1a618e4a811a108e3cd6783aa5
    wmkdep: codeStreamTemplate.C
    Ctoo: codeStreamTemplate.C
    ld: /home/ensm_student/Documents/CFD/Rechnerubung/Week07/Parameterstudien_mit_RANS/data/raw/AOA_10/dynamicCode/_2b62c01eb76c9a1a618e4a811a108e3cd6783aa5/../platforms/linux64GccDPInt32Opt/lib/libcodeStream_2b62c01eb76c9a1a618e4a811a108e3cd6783aa5.so
Reading/calculating face flux field phi

Selecting incompressible transport model Newtonian
Selecting turbulence model type RAS
Selecting RAS turbulence model kOmegaSST
Using #calcEntry at line 21 in file "/home/ensm_student/Documents/CFD/Rechnerubung/Week07/Parameterstudien_mit_RANS/data/raw/AOA_10/0/nut"
Using #calcEntry at line 27 in file "/home/ensm_student/Documents/CFD/Rechnerubung/Week07/Parameterstudien_mit_RANS/data/raw/AOA_10/0/nut"
Using #calcEntry at line 32 in file "/home/ensm_student/Documents/CFD/Rechnerubung/Week07/Parameterstudien_mit_RANS/data/raw/AOA_10/0/nut"
Using #calcEntry at line 34 in file "/home/ensm_student/Documents/CFD/Rechnerubung/Week07/Parameterstudien_mit_RANS/data/raw/AOA_10/0/nut"
Selecting patchDistMethod meshWave
Using #calcEntry at line 21 in file "/home/ensm_student/Documents/CFD/Rechnerubung/Week07/Parameterstudien_mit_RANS/data/raw/AOA_10/0/k"
Using #calcEntry at line 27 in file "/home/ensm_student/Documents/CFD/Rechnerubung/Week07/Parameterstudien_mit_RANS/data/raw/AOA_10/0/k"
Using #calcEntry at line 32 in file "/home/ensm_student/Documents/CFD/Rechnerubung/Week07/Parameterstudien_mit_RANS/data/raw/AOA_10/0/k"
Using #calcEntry at line 34 in file "/home/ensm_student/Documents/CFD/Rechnerubung/Week07/Parameterstudien_mit_RANS/data/raw/AOA_10/0/k"
Using #calcEntry at line 21 in file "/home/ensm_student/Documents/CFD/Rechnerubung/Week07/Parameterstudien_mit_RANS/data/raw/AOA_10/0/omega"
Using #calcEntry at line 27 in file "/home/ensm_student/Documents/CFD/Rechnerubung/Week07/Parameterstudien_mit_RANS/data/raw/AOA_10/0/omega"
Using #calcEntry at line 32 in file "/home/ensm_student/Documents/CFD/Rechnerubung/Week07/Parameterstudien_mit_RANS/data/raw/AOA_10/0/omega"
Using #calcEntry at line 34 in file "/home/ensm_student/Documents/CFD/Rechnerubung/Week07/Parameterstudien_mit_RANS/data/raw/AOA_10/0/omega"
RAS
{
    RASModel        kOmegaSST;
    turbulence      on;
    printCoeffs     on;
    alphaK1         0.85;
    alphaK2         1;
    alphaOmega1     0.5;
    alphaOmega2     0.856;
    gamma1          0.555556;
    gamma2          0.44;
    beta1           0.075;
    beta2           0.0828;
    betaStar        0.09;
    a1              0.31;
    b1              1;
    c1              10;
    F3              false;
}

No MRF models present

No finite volume options present

Starting time loop

--> FOAM Warning : 
    From function bool Foam::functionObjectList::read()
    in file db/functionObjects/functionObjectList/functionObjectList.C at line 682
    Reading "/home/ensm_student/Documents/CFD/Rechnerubung/Week07/Parameterstudien_mit_RANS/data/raw/AOA_10/system/controlDict" from line 18 to line 17
    Entry mag_U_infty is not a dictionary
--> FOAM Warning : 
    From function bool Foam::functionObjectList::read()
    in file db/functionObjects/functionObjectList/functionObjectList.C at line 682
    Reading "/home/ensm_student/Documents/CFD/Rechnerubung/Week07/Parameterstudien_mit_RANS/data/raw/AOA_10/system/controlDict" from line 18 to line 17
    Entry alpha_DEG is not a dictionary
--> FOAM Warning : 
    From function bool Foam::functionObjectList::read()
    in file db/functionObjects/functionObjectList/functionObjectList.C at line 682
    Reading "/home/ensm_student/Documents/CFD/Rechnerubung/Week07/Parameterstudien_mit_RANS/data/raw/AOA_10/system/controlDict" from line 18 to line 17
    Entry alpha_RAD is not a dictionary
--> FOAM Warning : 
    From function bool Foam::functionObjectList::read()
    in file db/functionObjects/functionObjectList/functionObjectList.C at line 682
    Reading "/home/ensm_student/Documents/CFD/Rechnerubung/Week07/Parameterstudien_mit_RANS/data/raw/AOA_10/system/controlDict" from line 18 to line 17
    Entry intensity is not a dictionary
--> FOAM Warning : 
    From function bool Foam::functionObjectList::read()
    in file db/functionObjects/functionObjectList/functionObjectList.C at line 682
    Reading "/home/ensm_student/Documents/CFD/Rechnerubung/Week07/Parameterstudien_mit_RANS/data/raw/AOA_10/system/controlDict" from line 18 to line 17
    Entry k_inlet is not a dictionary
--> FOAM Warning : 
    From function bool Foam::functionObjectList::read()
    in file db/functionObjects/functionObjectList/functionObjectList.C at line 682
    Reading "/home/ensm_student/Documents/CFD/Rechnerubung/Week07/Parameterstudien_mit_RANS/data/raw/AOA_10/system/controlDict" from line 18 to line 17
    Entry beta_1 is not a dictionary
--> FOAM Warning : 
    From function bool Foam::functionObjectList::read()
    in file db/functionObjects/functionObjectList/functionObjectList.C at line 682
    Reading "/home/ensm_student/Documents/CFD/Rechnerubung/Week07/Parameterstudien_mit_RANS/data/raw/AOA_10/system/controlDict" from line 18 to line 17
    Entry nu is not a dictionary
--> FOAM Warning : 
    From function bool Foam::functionObjectList::read()
    in file db/functionObjects/functionObjectList/functionObjectList.C at line 682
    Reading "/home/ensm_student/Documents/CFD/Rechnerubung/Week07/Parameterstudien_mit_RANS/data/raw/AOA_10/system/controlDict" from line 18 to line 17
    Entry del_y_1 is not a dictionary
--> FOAM Warning : 
    From function bool Foam::functionObjectList::read()
    in file db/functionObjects/functionObjectList/functionObjectList.C at line 682
    Reading "/home/ensm_student/Documents/CFD/Rechnerubung/Week07/Parameterstudien_mit_RANS/data/raw/AOA_10/system/controlDict" from line 18 to line 17
    Entry omega is not a dictionary
--> FOAM Warning : 
    From function bool Foam::functionObjectList::read()
    in file db/functionObjects/functionObjectList/functionObjectList.C at line 682
    Reading "/home/ensm_student/Documents/CFD/Rechnerubung/Week07/Parameterstudien_mit_RANS/data/raw/AOA_10/system/controlDict" from line 18 to line 17
    Entry nut is not a dictionary
--> FOAM Warning : 
    From function bool Foam::functionObjectList::read()
    in file db/functionObjects/functionObjectList/functionObjectList.C at line 682
    Reading "/home/ensm_student/Documents/CFD/Rechnerubung/Week07/Parameterstudien_mit_RANS/data/raw/AOA_10/system/controlDict" from line 18 to line 17
    Entry x_ is not a dictionary
--> FOAM Warning : 
    From function bool Foam::functionObjectList::read()
    in file db/functionObjects/functionObjectList/functionObjectList.C at line 682
    Reading "/home/ensm_student/Documents/CFD/Rechnerubung/Week07/Parameterstudien_mit_RANS/data/raw/AOA_10/system/controlDict" from line 18 to line 17
    Entry y_ is not a dictionary
--> FOAM Warning : 
    From function void Foam::timeControl::read(const Foam::dictionary&)
    in file db/functionObjects/timeControl/timeControl.C at line 89
    Reading "/home/ensm_student/Documents/CFD/Rechnerubung/Week07/Parameterstudien_mit_RANS/data/raw/AOA_10/system/controlDict.functions.forceCoeffs_object" from line 28 to line 48
    Using deprecated 'outputControl'
    Please use 'writeControl' with 'writeInterval'
forces forceCoeffs_object:
    Not including porosity effects
forceCoeffs forceCoeffs_object:
    Not including porosity effects
--> FOAM Warning : 
    From function void Foam::timeControl::read(const Foam::dictionary&)
    in file db/functionObjects/timeControl/timeControl.C at line 89
    Reading "/home/ensm_student/Documents/CFD/Rechnerubung/Week07/Parameterstudien_mit_RANS/data/raw/AOA_10/system/controlDict.functions.residuals" from line 19 to line 31
    Using deprecated 'outputControl'
    Please use 'writeControl' with 'writeInterval'
Time = 1

smoothSolver:  Solving for Ux, Initial residual = 1, Final residual = 0.0944222, No Iterations 24
smoothSolver:  Solving for Uy, Initial residual = 1, Final residual = 0.0945521, No Iterations 24
GAMG:  Solving for p, Initial residual = 1, Final residual = 0.00822609, No Iterations 21
time step continuity errors : sum local = 6.07359e-05, global = 1.56371e-05, cumulative = 1.56371e-05
smoothSolver:  Solving for omega, Initial residual = 0.00146303, Final residual = 0.000140189, No Iterations 3
bounding omega, min: -2.98468 max: 1873.49 average: 22.1626
smoothSolver:  Solving for k, Initial residual = 1, Final residual = 0.054218, No Iterations 3
ExecutionTime = 0.11 s  ClockTime = 1 s

forceCoeffs forceCoeffs_object write:
    Cm    = -0.219981
    Cd    = 1.13996
    Cl    = 0.0183238
    Cl(f) = -0.210819
    Cl(r) = 0.229143

Time = 2

smoothSolver:  Solving for Ux, Initial residual = 0.0137976, Final residual = 0.00121712, No Iterations 14
smoothSolver:  Solving for Uy, Initial residual = 0.162614, Final residual = 0.0154368, No Iterations 13
GAMG:  Solving for p, Initial residual = 0.0984632, Final residual = 0.000779145, No Iterations 18
time step continuity errors : sum local = 0.000126277, global = -5.5473e-05, cumulative = -3.98358e-05
smoothSolver:  Solving for omega, Initial residual = 0.00297538, Final residual = 0.000211358, No Iterations 3
bounding omega, min: -174.096 max: 6337.89 average: 29.4428
smoothSolver:  Solving for k, Initial residual = 0.238652, Final residual = 0.0152442, No Iterations 3
ExecutionTime = 0.14 s  ClockTime = 1 s

forceCoeffs forceCoeffs_object write:
    Cm    = -0.174927
    Cd    = 0.74713
    Cl    = 0.0650805
    Cl(f) = -0.142387
    Cl(r) = 0.207467

Time = 3

smoothSolver:  Solving for Ux, Initial residual = 0.00765013, Final residual = 0.000694657, No Iterations 12
smoothSolver:  Solving for Uy, Initial residual = 0.0612097, Final residual = 0.00557482, No Iterations 10
GAMG:  Solving for p, Initial residual = 0.0689228, Final residual = 0.000582732, No Iterations 18
time step continuity errors : sum local = 0.000118187, global = -6.12574e-05, cumulative = -0.000101093
smoothSolver:  Solving for omega, Initial residual = 0.0037033, Final residual = 0.000260701, No Iterations 4
smoothSolver:  Solving for k, Initial residual = 0.0773958, Final residual = 0.0049098, No Iterations 3
ExecutionTime = 0.16 s  ClockTime = 1 s

forceCoeffs forceCoeffs_object write:
    Cm    = -0.183685
    Cd    = 0.775398
    Cl    = 1.32903e-05
    Cl(f) = -0.183679
    Cl(r) = 0.183692

Time = 4

smoothSolver:  Solving for Ux, Initial residual = 0.00667718, Final residual = 0.000575467, No Iterations 11
smoothSolver:  Solving for Uy, Initial residual = 0.0314249, Final residual = 0.00291851, No Iterations 10
GAMG:  Solving for p, Initial residual = 0.139579, Final residual = 0.00107217, No Iterations 24
time step continuity errors : sum local = 7.48926e-05, global = -3.31336e-05, cumulative = -0.000134227
smoothSolver:  Solving for omega, Initial residual = 0.00175644, Final residual = 0.000157532, No Iterations 3
smoothSolver:  Solving for k, Initial residual = 0.02864, Final residual = 0.00202357, No Iterations 3
ExecutionTime = 0.2 s  ClockTime = 1 s

forceCoeffs forceCoeffs_object write:
    Cm    = -0.153734
    Cd    = 0.834741
    Cl    = -0.059099
    Cl(f) = -0.183283
    Cl(r) = 0.124184

Time = 5

smoothSolver:  Solving for Ux, Initial residual = 0.00572197, Final residual = 0.000490768, No Iterations 10
smoothSolver:  Solving for Uy, Initial residual = 0.0231982, Final residual = 0.00209076, No Iterations 10
GAMG:  Solving for p, Initial residual = 0.166918, Final residual = 0.0012891, No Iterations 22
time step continuity errors : sum local = 7.46122e-05, global = -3.21955e-05, cumulative = -0.000166422
smoothSolver:  Solving for omega, Initial residual = 0.00135111, Final residual = 8.26064e-05, No Iterations 3
smoothSolver:  Solving for k, Initial residual = 0.00983378, Final residual = 0.000689181, No Iterations 3
ExecutionTime = 0.23 s  ClockTime = 1 s

forceCoeffs forceCoeffs_object write:
    Cm    = -0.137303
    Cd    = 0.849033
    Cl    = -0.0866886
    Cl(f) = -0.180648
    Cl(r) = 0.093959

Time = 6

smoothSolver:  Solving for Ux, Initial residual = 0.00528217, Final residual = 0.000468651, No Iterations 9
smoothSolver:  Solving for Uy, Initial residual = 0.0162896, Final residual = 0.00161462, No Iterations 10
GAMG:  Solving for p, Initial residual = 0.17877, Final residual = 0.00169983, No Iterations 14
time step continuity errors : sum local = 7.73695e-05, global = -3.43468e-05, cumulative = -0.000200769
smoothSolver:  Solving for omega, Initial residual = 0.000999228, Final residual = 5.38982e-05, No Iterations 3
smoothSolver:  Solving for k, Initial residual = 0.00456484, Final residual = 0.000310312, No Iterations 3
ExecutionTime = 0.25 s  ClockTime = 1 s

forceCoeffs forceCoeffs_object write:
    Cm    = -0.169235
    Cd    = 0.927479
    Cl    = -0.0981498
    Cl(f) = -0.21831
    Cl(r) = 0.12016

Time = 7

smoothSolver:  Solving for Ux, Initial residual = 0.00460553, Final residual = 0.000413394, No Iterations 9
smoothSolver:  Solving for Uy, Initial residual = 0.0122431, Final residual = 0.00117597, No Iterations 11
GAMG:  Solving for p, Initial residual = 0.139793, Final residual = 0.0013074, No Iterations 19
time step continuity errors : sum local = 6.73094e-05, global = 3.57384e-05, cumulative = -0.000165031
smoothSolver:  Solving for omega, Initial residual = 0.000698489, Final residual = 3.0868e-05, No Iterations 3
smoothSolver:  Solving for k, Initial residual = 0.00370656, Final residual = 0.000229009, No Iterations 3
ExecutionTime = 0.28 s  ClockTime = 1 s

forceCoeffs forceCoeffs_object write:
    Cm    = -0.190246
    Cd    = 1.05446
    Cl    = -0.117917
    Cl(f) = -0.249204
    Cl(r) = 0.131287

Time = 8

smoothSolver:  Solving for Ux, Initial residual = 0.00423529, Final residual = 0.000386175, No Iterations 9
smoothSolver:  Solving for Uy, Initial residual = 0.0107123, Final residual = 0.00101947, No Iterations 11
GAMG:  Solving for p, Initial residual = 0.125546, Final residual = 0.00124619, No Iterations 15
time step continuity errors : sum local = 6.81703e-05, global = 3.65612e-05, cumulative = -0.00012847
smoothSolver:  Solving for omega, Initial residual = 0.000478527, Final residual = 2.42264e-05, No Iterations 3
smoothSolver:  Solving for k, Initial residual = 0.00281232, Final residual = 0.000153857, No Iterations 3
ExecutionTime = 0.31 s  ClockTime = 1 s

forceCoeffs forceCoeffs_object write:
    Cm    = -0.177999
    Cd    = 1.09877
    Cl    = -0.133356
    Cl(f) = -0.244677
    Cl(r) = 0.111321

Time = 9

smoothSolver:  Solving for Ux, Initial residual = 0.00402821, Final residual = 0.000393583, No Iterations 9
smoothSolver:  Solving for Uy, Initial residual = 0.00890798, Final residual = 0.000889658, No Iterations 11
GAMG:  Solving for p, Initial residual = 0.0925014, Final residual = 0.000865916, No Iterations 17
time step continuity errors : sum local = 5.70879e-05, global = 2.7126e-05, cumulative = -0.000101344
smoothSolver:  Solving for omega, Initial residual = 0.000448878, Final residual = 1.97052e-05, No Iterations 3
bounding omega, min: -1899.8 max: 17925.2 average: 135.255
smoothSolver:  Solving for k, Initial residual = 0.00176484, Final residual = 9.42476e-05, No Iterations 3
ExecutionTime = 0.34 s  ClockTime = 1 s

forceCoeffs forceCoeffs_object write:
    Cm    = -0.167027
    Cd    = 1.10516
    Cl    = -0.137578
    Cl(f) = -0.235816
    Cl(r) = 0.0982381

Time = 10

smoothSolver:  Solving for Ux, Initial residual = 0.00427982, Final residual = 0.000394884, No Iterations 9
smoothSolver:  Solving for Uy, Initial residual = 0.00833563, Final residual = 0.000822834, No Iterations 11
GAMG:  Solving for p, Initial residual = 0.103031, Final residual = 0.00090652, No Iterations 17
time step continuity errors : sum local = 5.33579e-05, global = 2.66407e-05, cumulative = -7.47029e-05
smoothSolver:  Solving for omega, Initial residual = 0.000390506, Final residual = 1.66047e-05, No Iterations 3
smoothSolver:  Solving for k, Initial residual = 0.00158107, Final residual = 7.60394e-05, No Iterations 3
ExecutionTime = 0.36 s  ClockTime = 1 s

forceCoeffs forceCoeffs_object write:
    Cm    = -0.151547
    Cd    = 1.10978
    Cl    = -0.142101
    Cl(f) = -0.222598
    Cl(r) = 0.0804967

Time = 11

smoothSolver:  Solving for Ux, Initial residual = 0.00420008, Final residual = 0.000373941, No Iterations 10
smoothSolver:  Solving for Uy, Initial residual = 0.00773654, Final residual = 0.000751695, No Iterations 11
GAMG:  Solving for p, Initial residual = 0.113497, Final residual = 0.00104003, No Iterations 15
time step continuity errors : sum local = 4.96958e-05, global = 2.30866e-05, cumulative = -5.16163e-05
smoothSolver:  Solving for omega, Initial residual = 0.000428377, Final residual = 3.34885e-05, No Iterations 2
smoothSolver:  Solving for k, Initial residual = 0.00138582, Final residual = 6.38427e-05, No Iterations 3
ExecutionTime = 0.39 s  ClockTime = 1 s

forceCoeffs forceCoeffs_object write:
    Cm    = -0.141085
    Cd    = 1.09089
    Cl    = -0.140815
    Cl(f) = -0.211493
    Cl(r) = 0.0706772

Time = 12

smoothSolver:  Solving for Ux, Initial residual = 0.0043103, Final residual = 0.000430326, No Iterations 9
smoothSolver:  Solving for Uy, Initial residual = 0.00756756, Final residual = 0.000713467, No Iterations 11
GAMG:  Solving for p, Initial residual = 0.0795793, Final residual = 0.000795109, No Iterations 14
time step continuity errors : sum local = 5.13016e-05, global = -2.71408e-05, cumulative = -7.87571e-05
smoothSolver:  Solving for omega, Initial residual = 0.000433141, Final residual = 3.53379e-05, No Iterations 2
smoothSolver:  Solving for k, Initial residual = 0.00137871, Final residual = 5.95096e-05, No Iterations 3
ExecutionTime = 0.41 s  ClockTime = 1 s

forceCoeffs forceCoeffs_object write:
    Cm    = -0.139533
    Cd    = 1.08702
    Cl    = -0.140023
    Cl(f) = -0.209544
    Cl(r) = 0.0695219

Time = 13

smoothSolver:  Solving for Ux, Initial residual = 0.00434725, Final residual = 0.000394216, No Iterations 10
smoothSolver:  Solving for Uy, Initial residual = 0.00753807, Final residual = 0.000675716, No Iterations 11
GAMG:  Solving for p, Initial residual = 0.0556277, Final residual = 0.00045021, No Iterations 15
time step continuity errors : sum local = 3.97868e-05, global = 1.11377e-05, cumulative = -6.76194e-05
smoothSolver:  Solving for omega, Initial residual = 0.000466971, Final residual = 3.5817e-05, No Iterations 2
smoothSolver:  Solving for k, Initial residual = 0.00134363, Final residual = 5.60196e-05, No Iterations 3
bounding k, min: -0.000977936 max: 6.22242 average: 0.0312126
ExecutionTime = 0.44 s  ClockTime = 1 s

forceCoeffs forceCoeffs_object write:
    Cm    = -0.144398
    Cd    = 1.08252
    Cl    = -0.138216
    Cl(f) = -0.213506
    Cl(r) = 0.0752899

Time = 14

smoothSolver:  Solving for Ux, Initial residual = 0.00433572, Final residual = 0.000398643, No Iterations 10
smoothSolver:  Solving for Uy, Initial residual = 0.00777232, Final residual = 0.000761489, No Iterations 10
GAMG:  Solving for p, Initial residual = 0.042503, Final residual = 0.0003319, No Iterations 17
time step continuity errors : sum local = 3.70045e-05, global = 9.95813e-06, cumulative = -5.76613e-05
smoothSolver:  Solving for omega, Initial residual = 0.000463756, Final residual = 3.61618e-05, No Iterations 2
smoothSolver:  Solving for k, Initial residual = 0.0013614, Final residual = 0.000131628, No Iterations 2
ExecutionTime = 0.47 s  ClockTime = 1 s

forceCoeffs forceCoeffs_object write:
    Cm    = -0.156558
    Cd    = 1.08268
    Cl    = -0.135738
    Cl(f) = -0.224427
    Cl(r) = 0.088689

Time = 15

smoothSolver:  Solving for Ux, Initial residual = 0.00433102, Final residual = 0.000406093, No Iterations 10
smoothSolver:  Solving for Uy, Initial residual = 0.00818395, Final residual = 0.000757191, No Iterations 10
GAMG:  Solving for p, Initial residual = 0.0323715, Final residual = 0.000300472, No Iterations 17
time step continuity errors : sum local = 4.0669e-05, global = 1.10253e-05, cumulative = -4.6636e-05
smoothSolver:  Solving for omega, Initial residual = 0.000456079, Final residual = 3.46633e-05, No Iterations 2
smoothSolver:  Solving for k, Initial residual = 0.00132781, Final residual = 0.000126535, No Iterations 2
ExecutionTime = 0.49 s  ClockTime = 1 s

forceCoeffs forceCoeffs_object write:
    Cm    = -0.17234
    Cd    = 1.08466
    Cl    = -0.133473
    Cl(f) = -0.239076
    Cl(r) = 0.105604

Time = 16

smoothSolver:  Solving for Ux, Initial residual = 0.00432536, Final residual = 0.00040969, No Iterations 10
smoothSolver:  Solving for Uy, Initial residual = 0.00879339, Final residual = 0.000760846, No Iterations 10
GAMG:  Solving for p, Initial residual = 0.0264021, Final residual = 0.000215739, No Iterations 19
time step continuity errors : sum local = 3.4671e-05, global = 8.89404e-06, cumulative = -3.7742e-05
smoothSolver:  Solving for omega, Initial residual = 0.0004481, Final residual = 3.39468e-05, No Iterations 2
smoothSolver:  Solving for k, Initial residual = 0.00133345, Final residual = 0.000129143, No Iterations 2
ExecutionTime = 0.52 s  ClockTime = 1 s

forceCoeffs forceCoeffs_object write:
    Cm    = -0.190188
    Cd    = 1.08329
    Cl    = -0.130536
    Cl(f) = -0.255455
    Cl(r) = 0.12492

Time = 17

smoothSolver:  Solving for Ux, Initial residual = 0.00439493, Final residual = 0.000409428, No Iterations 10
smoothSolver:  Solving for Uy, Initial residual = 0.00960102, Final residual = 0.000899618, No Iterations 9
GAMG:  Solving for p, Initial residual = 0.0229273, Final residual = 0.000199266, No Iterations 19
time step continuity errors : sum local = 3.6902e-05, global = 9.32953e-06, cumulative = -2.84125e-05
smoothSolver:  Solving for omega, Initial residual = 0.000424192, Final residual = 3.52516e-05, No Iterations 2
smoothSolver:  Solving for k, Initial residual = 0.00122929, Final residual = 0.000120945, No Iterations 2
ExecutionTime = 0.55 s  ClockTime = 1 s

forceCoeffs forceCoeffs_object write:
    Cm    = -0.210399
    Cd    = 1.07662
    Cl    = -0.125936
    Cl(f) = -0.273367
    Cl(r) = 0.147431

Time = 18

smoothSolver:  Solving for Ux, Initial residual = 0.00430034, Final residual = 0.000405999, No Iterations 10
smoothSolver:  Solving for Uy, Initial residual = 0.0106096, Final residual = 0.000939036, No Iterations 9
GAMG:  Solving for p, Initial residual = 0.0198022, Final residual = 0.00016361, No Iterations 19
time step continuity errors : sum local = 3.54912e-05, global = 8.70022e-06, cumulative = -1.97122e-05
smoothSolver:  Solving for omega, Initial residual = 0.000408385, Final residual = 3.4401e-05, No Iterations 2
smoothSolver:  Solving for k, Initial residual = 0.00117381, Final residual = 0.000109161, No Iterations 2
ExecutionTime = 0.58 s  ClockTime = 1 s

forceCoeffs forceCoeffs_object write:
    Cm    = -0.232641
    Cd    = 1.06664
    Cl    = -0.119247
    Cl(f) = -0.292264
    Cl(r) = 0.173017

Time = 19

smoothSolver:  Solving for Ux, Initial residual = 0.00429442, Final residual = 0.000404856, No Iterations 10
smoothSolver:  Solving for Uy, Initial residual = 0.0119816, Final residual = 0.00102478, No Iterations 9
GAMG:  Solving for p, Initial residual = 0.0174794, Final residual = 0.00016704, No Iterations 18
time step continuity errors : sum local = 4.21527e-05, global = 1.58288e-05, cumulative = -3.88348e-06
smoothSolver:  Solving for omega, Initial residual = 0.000396264, Final residual = 3.14098e-05, No Iterations 2
smoothSolver:  Solving for k, Initial residual = 0.0010845, Final residual = 0.000102547, No Iterations 2
ExecutionTime = 0.61 s  ClockTime = 2 s

forceCoeffs forceCoeffs_object write:
    Cm    = -0.253425
    Cd    = 1.05068
    Cl    = -0.11143
    Cl(f) = -0.30914
    Cl(r) = 0.19771

Time = 20

smoothSolver:  Solving for Ux, Initial residual = 0.00437378, Final residual = 0.000402166, No Iterations 10
smoothSolver:  Solving for Uy, Initial residual = 0.0137815, Final residual = 0.00136616, No Iterations 8
GAMG:  Solving for p, Initial residual = 0.0158043, Final residual = 0.000127942, No Iterations 20
time step continuity errors : sum local = 3.65701e-05, global = 1.33333e-05, cumulative = 9.44977e-06
smoothSolver:  Solving for omega, Initial residual = 0.000372114, Final residual = 3.01361e-05, No Iterations 2
smoothSolver:  Solving for k, Initial residual = 0.00100078, Final residual = 9.35792e-05, No Iterations 2
ExecutionTime = 0.63 s  ClockTime = 2 s

forceCoeffs forceCoeffs_object write:
    Cm    = -0.269978
    Cd    = 1.02216
    Cl    = -0.101381
    Cl(f) = -0.320668
    Cl(r) = 0.219287

Time = 21

smoothSolver:  Solving for Ux, Initial residual = 0.00442875, Final residual = 0.000406067, No Iterations 10
smoothSolver:  Solving for Uy, Initial residual = 0.0161361, Final residual = 0.00137215, No Iterations 9
GAMG:  Solving for p, Initial residual = 0.0142954, Final residual = 0.000119723, No Iterations 20
time step continuity errors : sum local = 3.87233e-05, global = 1.66073e-05, cumulative = 2.60571e-05
smoothSolver:  Solving for omega, Initial residual = 0.000357631, Final residual = 2.91032e-05, No Iterations 2
smoothSolver:  Solving for k, Initial residual = 0.000978365, Final residual = 8.90688e-05, No Iterations 2
ExecutionTime = 0.66 s  ClockTime = 2 s

forceCoeffs forceCoeffs_object write:
    Cm    = -0.277437
    Cd    = 0.972234
    Cl    = -0.0878828
    Cl(f) = -0.321378
    Cl(r) = 0.233495

Time = 22

smoothSolver:  Solving for Ux, Initial residual = 0.00443805, Final residual = 0.000410018, No Iterations 10
smoothSolver:  Solving for Uy, Initial residual = 0.0194087, Final residual = 0.00169387, No Iterations 9
GAMG:  Solving for p, Initial residual = 0.0132543, Final residual = 0.000114418, No Iterations 20
time step continuity errors : sum local = 4.10608e-05, global = 1.94758e-05, cumulative = 4.55329e-05
smoothSolver:  Solving for omega, Initial residual = 0.00034785, Final residual = 2.75885e-05, No Iterations 2
smoothSolver:  Solving for k, Initial residual = 0.000953028, Final residual = 8.05409e-05, No Iterations 2
ExecutionTime = 0.69 s  ClockTime = 2 s

forceCoeffs forceCoeffs_object write:
    Cm    = -0.272922
    Cd    = 0.901067
    Cl    = -0.0716925
    Cl(f) = -0.308768
    Cl(r) = 0.237076

Time = 23

smoothSolver:  Solving for Ux, Initial residual = 0.0044185, Final residual = 0.000411171, No Iterations 10
smoothSolver:  Solving for Uy, Initial residual = 0.0243513, Final residual = 0.00217807, No Iterations 9
GAMG:  Solving for p, Initial residual = 0.0124195, Final residual = 0.000108729, No Iterations 20
time step continuity errors : sum local = 4.29203e-05, global = 2.13849e-05, cumulative = 6.69178e-05
smoothSolver:  Solving for omega, Initial residual = 0.000334847, Final residual = 2.77805e-05, No Iterations 2
smoothSolver:  Solving for k, Initial residual = 0.000932724, Final residual = 7.91183e-05, No Iterations 2
ExecutionTime = 0.72 s  ClockTime = 2 s

forceCoeffs forceCoeffs_object write:
    Cm    = -0.251542
    Cd    = 0.802879
    Cl    = -0.0529117
    Cl(f) = -0.277998
    Cl(r) = 0.225086

Time = 24

smoothSolver:  Solving for Ux, Initial residual = 0.00445303, Final residual = 0.000406478, No Iterations 10
smoothSolver:  Solving for Uy, Initial residual = 0.0327384, Final residual = 0.00299789, No Iterations 9
GAMG:  Solving for p, Initial residual = 0.0117112, Final residual = 0.000109185, No Iterations 20
time step continuity errors : sum local = 4.69017e-05, global = 2.325e-05, cumulative = 9.01678e-05
smoothSolver:  Solving for omega, Initial residual = 0.000336411, Final residual = 2.8771e-05, No Iterations 2
smoothSolver:  Solving for k, Initial residual = 0.000928205, Final residual = 7.81299e-05, No Iterations 2
ExecutionTime = 0.75 s  ClockTime = 2 s

forceCoeffs forceCoeffs_object write:
    Cm    = -0.210997
    Cd    = 0.677363
    Cl    = -0.0323213
    Cl(f) = -0.227158
    Cl(r) = 0.194837

Time = 25

smoothSolver:  Solving for Ux, Initial residual = 0.00453059, Final residual = 0.000393904, No Iterations 10
smoothSolver:  Solving for Uy, Initial residual = 0.0491697, Final residual = 0.00465887, No Iterations 9
GAMG:  Solving for p, Initial residual = 0.0108798, Final residual = 9.60674e-05, No Iterations 21
time step continuity errors : sum local = 4.44078e-05, global = -2.06266e-05, cumulative = 6.95413e-05
smoothSolver:  Solving for omega, Initial residual = 0.000332893, Final residual = 2.84995e-05, No Iterations 2
smoothSolver:  Solving for k, Initial residual = 0.000938083, Final residual = 7.87009e-05, No Iterations 2
ExecutionTime = 0.77 s  ClockTime = 2 s

forceCoeffs forceCoeffs_object write:
    Cm    = -0.153446
    Cd    = 0.53074
    Cl    = -0.0111288
    Cl(f) = -0.159011
    Cl(r) = 0.147882

Time = 26

smoothSolver:  Solving for Ux, Initial residual = 0.00469514, Final residual = 0.000450924, No Iterations 9
smoothSolver:  Solving for Uy, Initial residual = 0.0753885, Final residual = 0.00739751, No Iterations 9
GAMG:  Solving for p, Initial residual = 0.0102795, Final residual = 0.000101951, No Iterations 20
time step continuity errors : sum local = 4.9618e-05, global = 2.53559e-05, cumulative = 9.48972e-05
smoothSolver:  Solving for omega, Initial residual = 0.000326342, Final residual = 2.9035e-05, No Iterations 2
smoothSolver:  Solving for k, Initial residual = 0.0009093, Final residual = 7.60523e-05, No Iterations 2
ExecutionTime = 0.8 s  ClockTime = 2 s

forceCoeffs forceCoeffs_object write:
    Cm    = -0.0836834
    Cd    = 0.371429
    Cl    = 0.00960311
    Cl(f) = -0.0788818
    Cl(r) = 0.088485

Time = 27

smoothSolver:  Solving for Ux, Initial residual = 0.00474332, Final residual = 0.000448048, No Iterations 9
smoothSolver:  Solving for Uy, Initial residual = 0.0469132, Final residual = 0.00410681, No Iterations 10
GAMG:  Solving for p, Initial residual = 0.00962478, Final residual = 9.36374e-05, No Iterations 21
time step continuity errors : sum local = 4.67373e-05, global = -2.19814e-05, cumulative = 7.29158e-05
smoothSolver:  Solving for omega, Initial residual = 0.000313221, Final residual = 2.90981e-05, No Iterations 2
smoothSolver:  Solving for k, Initial residual = 0.000926719, Final residual = 8.01446e-05, No Iterations 2
ExecutionTime = 0.83 s  ClockTime = 2 s

forceCoeffs forceCoeffs_object write:
    Cm    = -0.00813027
    Cd    = 0.208862
    Cl    = 0.0290943
    Cl(f) = 0.00641686
    Cl(r) = 0.0226774

Time = 28

smoothSolver:  Solving for Ux, Initial residual = 0.00470168, Final residual = 0.000459903, No Iterations 9
smoothSolver:  Solving for Uy, Initial residual = 0.0318075, Final residual = 0.00283153, No Iterations 10
GAMG:  Solving for p, Initial residual = 0.00965404, Final residual = 9.3893e-05, No Iterations 22
time step continuity errors : sum local = 4.73356e-05, global = 2.6315e-05, cumulative = 9.92308e-05
smoothSolver:  Solving for omega, Initial residual = 0.000301497, Final residual = 2.63054e-05, No Iterations 2
smoothSolver:  Solving for k, Initial residual = 0.000932463, Final residual = 7.84415e-05, No Iterations 2
ExecutionTime = 0.86 s  ClockTime = 2 s

forceCoeffs forceCoeffs_object write:
    Cm    = 0.0631609
    Cd    = 0.0628529
    Cl    = 0.0451076
    Cl(f) = 0.0857147
    Cl(r) = -0.040607

Time = 29

smoothSolver:  Solving for Ux, Initial residual = 0.00488846, Final residual = 0.000478841, No Iterations 9
smoothSolver:  Solving for Uy, Initial residual = 0.0251261, Final residual = 0.00221647, No Iterations 10
GAMG:  Solving for p, Initial residual = 0.0104378, Final residual = 0.000100695, No Iterations 21
time step continuity errors : sum local = 4.99151e-05, global = -2.17443e-05, cumulative = 7.74865e-05
smoothSolver:  Solving for omega, Initial residual = 0.000300442, Final residual = 2.58739e-05, No Iterations 2
smoothSolver:  Solving for k, Initial residual = 0.000953394, Final residual = 7.91695e-05, No Iterations 2
ExecutionTime = 0.89 s  ClockTime = 2 s

forceCoeffs forceCoeffs_object write:
    Cm    = 0.121896
    Cd    = -0.0552819
    Cl    = 0.0561963
    Cl(f) = 0.149995
    Cl(r) = -0.0937984

Time = 30

smoothSolver:  Solving for Ux, Initial residual = 0.00544969, Final residual = 0.000543033, No Iterations 9
smoothSolver:  Solving for Uy, Initial residual = 0.0224216, Final residual = 0.00193902, No Iterations 10
GAMG:  Solving for p, Initial residual = 0.0116428, Final residual = 0.000100102, No Iterations 19
time step continuity errors : sum local = 4.70631e-05, global = -1.9325e-05, cumulative = 5.81614e-05
smoothSolver:  Solving for omega, Initial residual = 0.000296418, Final residual = 2.53654e-05, No Iterations 2
smoothSolver:  Solving for k, Initial residual = 0.000979982, Final residual = 8.31061e-05, No Iterations 2
ExecutionTime = 0.92 s  ClockTime = 2 s

forceCoeffs forceCoeffs_object write:
    Cm    = 0.153954
    Cd    = -0.115315
    Cl    = 0.0588816
    Cl(f) = 0.183395
    Cl(r) = -0.124513

Time = 31

smoothSolver:  Solving for Ux, Initial residual = 0.00629171, Final residual = 0.000621667, No Iterations 9
smoothSolver:  Solving for Uy, Initial residual = 0.0212221, Final residual = 0.00210423, No Iterations 9
GAMG:  Solving for p, Initial residual = 0.0137425, Final residual = 0.0001196, No Iterations 18
time step continuity errors : sum local = 5.26608e-05, global = 2.86799e-05, cumulative = 8.68414e-05
smoothSolver:  Solving for omega, Initial residual = 0.000298957, Final residual = 2.63523e-05, No Iterations 2
smoothSolver:  Solving for k, Initial residual = 0.00100088, Final residual = 8.30029e-05, No Iterations 2
ExecutionTime = 0.95 s  ClockTime = 2 s

forceCoeffs forceCoeffs_object write:
    Cm    = 0.160599
    Cd    = -0.127102
    Cl    = 0.0559617
    Cl(f) = 0.18858
    Cl(r) = -0.132618

Time = 32

smoothSolver:  Solving for Ux, Initial residual = 0.00757575, Final residual = 0.000712008, No Iterations 9
smoothSolver:  Solving for Uy, Initial residual = 0.0222571, Final residual = 0.00212752, No Iterations 9
GAMG:  Solving for p, Initial residual = 0.0147142, Final residual = 0.000142504, No Iterations 16
time step continuity errors : sum local = 5.63456e-05, global = 2.15484e-05, cumulative = 0.00010839
smoothSolver:  Solving for omega, Initial residual = 0.000283995, Final residual = 2.67569e-05, No Iterations 2
smoothSolver:  Solving for k, Initial residual = 0.00102192, Final residual = 8.67256e-05, No Iterations 2
ExecutionTime = 0.97 s  ClockTime = 2 s

forceCoeffs forceCoeffs_object write:
    Cm    = 0.140088
    Cd    = -0.0816072
    Cl    = 0.04647
    Cl(f) = 0.163323
    Cl(r) = -0.116853

Time = 33

smoothSolver:  Solving for Ux, Initial residual = 0.00903193, Final residual = 0.000800184, No Iterations 9
smoothSolver:  Solving for Uy, Initial residual = 0.0245696, Final residual = 0.00230381, No Iterations 9
GAMG:  Solving for p, Initial residual = 0.0159881, Final residual = 0.00015065, No Iterations 18
time step continuity errors : sum local = 5.43359e-05, global = 1.9333e-05, cumulative = 0.000127723
smoothSolver:  Solving for omega, Initial residual = 0.00028882, Final residual = 1.18532e-05, No Iterations 3
smoothSolver:  Solving for k, Initial residual = 0.00100934, Final residual = 9.1034e-05, No Iterations 2
ExecutionTime = 1 s  ClockTime = 2 s

forceCoeffs forceCoeffs_object write:
    Cm    = 0.103056
    Cd    = 0.0060002
    Cl    = 0.0309279
    Cl(f) = 0.11852
    Cl(r) = -0.087592

Time = 34

smoothSolver:  Solving for Ux, Initial residual = 0.0109409, Final residual = 0.00106721, No Iterations 8
smoothSolver:  Solving for Uy, Initial residual = 0.0301165, Final residual = 0.00264454, No Iterations 9
GAMG:  Solving for p, Initial residual = 0.0193528, Final residual = 0.000181485, No Iterations 19
time step continuity errors : sum local = 5.96928e-05, global = -2.56625e-05, cumulative = 0.00010206
smoothSolver:  Solving for omega, Initial residual = 0.000275611, Final residual = 1.19953e-05, No Iterations 3
smoothSolver:  Solving for k, Initial residual = 0.00107506, Final residual = 9.58586e-05, No Iterations 2
ExecutionTime = 1.03 s  ClockTime = 2 s

forceCoeffs forceCoeffs_object write:
    Cm    = 0.0558096
    Cd    = 0.131044
    Cl    = 0.00918607
    Cl(f) = 0.0604026
    Cl(r) = -0.0512165

Time = 35

smoothSolver:  Solving for Ux, Initial residual = 0.0129603, Final residual = 0.00121329, No Iterations 8
smoothSolver:  Solving for Uy, Initial residual = 0.0432744, Final residual = 0.00421206, No Iterations 8
GAMG:  Solving for p, Initial residual = 0.0211375, Final residual = 0.000183956, No Iterations 20
time step continuity errors : sum local = 5.40874e-05, global = 2.07571e-05, cumulative = 0.000122817
smoothSolver:  Solving for omega, Initial residual = 0.000272101, Final residual = 1.23777e-05, No Iterations 3
smoothSolver:  Solving for k, Initial residual = 0.00114426, Final residual = 0.000101292, No Iterations 2
ExecutionTime = 1.05 s  ClockTime = 2 s

forceCoeffs forceCoeffs_object write:
    Cm    = 0.0129464
    Cd    = 0.257601
    Cl    = -0.014349
    Cl(f) = 0.00577192
    Cl(r) = -0.0201209

Time = 36

smoothSolver:  Solving for Ux, Initial residual = 0.0148921, Final residual = 0.00131052, No Iterations 8
smoothSolver:  Solving for Uy, Initial residual = 0.0720066, Final residual = 0.0066448, No Iterations 8
GAMG:  Solving for p, Initial residual = 0.0230481, Final residual = 0.000211921, No Iterations 20
time step continuity errors : sum local = 5.4553e-05, global = 2.20392e-05, cumulative = 0.000144857
smoothSolver:  Solving for omega, Initial residual = 0.000265082, Final residual = 1.27423e-05, No Iterations 3
smoothSolver:  Solving for k, Initial residual = 0.00121272, Final residual = 0.000107453, No Iterations 2
ExecutionTime = 1.08 s  ClockTime = 2 s

forceCoeffs forceCoeffs_object write:
    Cm    = -0.0165219
    Cd    = 0.355215
    Cl    = -0.0352635
    Cl(f) = -0.0341536
    Cl(r) = -0.00110988

Time = 37

smoothSolver:  Solving for Ux, Initial residual = 0.0161697, Final residual = 0.00139639, No Iterations 8
smoothSolver:  Solving for Uy, Initial residual = 0.122807, Final residual = 0.0106417, No Iterations 8
GAMG:  Solving for p, Initial residual = 0.0285354, Final residual = 0.000268426, No Iterations 19
time step continuity errors : sum local = 5.62858e-05, global = -2.73094e-05, cumulative = 0.000117547
smoothSolver:  Solving for omega, Initial residual = 0.000251138, Final residual = 1.21871e-05, No Iterations 3
smoothSolver:  Solving for k, Initial residual = 0.00126242, Final residual = 0.000111522, No Iterations 2
ExecutionTime = 1.12 s  ClockTime = 2 s

forceCoeffs forceCoeffs_object write:
    Cm    = -0.0353183
    Cd    = 0.424795
    Cl    = -0.0526121
    Cl(f) = -0.0616244
    Cl(r) = 0.0090123

Time = 38

smoothSolver:  Solving for Ux, Initial residual = 0.0170348, Final residual = 0.00147252, No Iterations 8
smoothSolver:  Solving for Uy, Initial residual = 0.0638693, Final residual = 0.00551479, No Iterations 8
GAMG:  Solving for p, Initial residual = 0.0373768, Final residual = 0.000346149, No Iterations 17
time step continuity errors : sum local = 5.42102e-05, global = -2.62186e-05, cumulative = 9.13285e-05
smoothSolver:  Solving for omega, Initial residual = 0.000243998, Final residual = 1.17665e-05, No Iterations 3
smoothSolver:  Solving for k, Initial residual = 0.00130315, Final residual = 0.000110133, No Iterations 2
ExecutionTime = 1.14 s  ClockTime = 2 s

forceCoeffs forceCoeffs_object write:
    Cm    = -0.0471366
    Cd    = 0.469369
    Cl    = -0.065027
    Cl(f) = -0.0796501
    Cl(r) = 0.0146231

Time = 39

smoothSolver:  Solving for Ux, Initial residual = 0.0169266, Final residual = 0.00148873, No Iterations 8
smoothSolver:  Solving for Uy, Initial residual = 0.0431398, Final residual = 0.00375781, No Iterations 8
GAMG:  Solving for p, Initial residual = 0.0481095, Final residual = 0.000401208, No Iterations 17
time step continuity errors : sum local = 4.71607e-05, global = 2.30615e-05, cumulative = 0.00011439
smoothSolver:  Solving for omega, Initial residual = 0.000239168, Final residual = 1.11389e-05, No Iterations 3
smoothSolver:  Solving for k, Initial residual = 0.00125534, Final residual = 0.000109426, No Iterations 2
ExecutionTime = 1.17 s  ClockTime = 2 s

forceCoeffs forceCoeffs_object write:
    Cm    = -0.0549922
    Cd    = 0.495674
    Cl    = -0.0726062
    Cl(f) = -0.0912953
    Cl(r) = 0.0186891

Time = 40

smoothSolver:  Solving for Ux, Initial residual = 0.0159522, Final residual = 0.001441, No Iterations 8
smoothSolver:  Solving for Uy, Initial residual = 0.033312, Final residual = 0.00291235, No Iterations 8
GAMG:  Solving for p, Initial residual = 0.0616432, Final residual = 0.000589974, No Iterations 15
time step continuity errors : sum local = 6.00101e-05, global = 3.06897e-05, cumulative = 0.00014508
smoothSolver:  Solving for omega, Initial residual = 0.000236575, Final residual = 1.12108e-05, No Iterations 3
smoothSolver:  Solving for k, Initial residual = 0.00118924, Final residual = 0.000102652, No Iterations 2
ExecutionTime = 1.19 s  ClockTime = 2 s

forceCoeffs forceCoeffs_object write:
    Cm    = -0.0641583
    Cd    = 0.518231
    Cl    = -0.0772952
    Cl(f) = -0.102806
    Cl(r) = 0.0255107

Time = 41

smoothSolver:  Solving for Ux, Initial residual = 0.0149102, Final residual = 0.00135817, No Iterations 8
smoothSolver:  Solving for Uy, Initial residual = 0.0274721, Final residual = 0.00241809, No Iterations 8
GAMG:  Solving for p, Initial residual = 0.0641133, Final residual = 0.000603819, No Iterations 17
time step continuity errors : sum local = 6.18448e-05, global = 3.11346e-05, cumulative = 0.000176214
smoothSolver:  Solving for omega, Initial residual = 0.000217614, Final residual = 1.019e-05, No Iterations 3
smoothSolver:  Solving for k, Initial residual = 0.00111593, Final residual = 9.71547e-05, No Iterations 2
ExecutionTime = 1.22 s  ClockTime = 2 s

forceCoeffs forceCoeffs_object write:
    Cm    = -0.07788
    Cd    = 0.54317
    Cl    = -0.0811506
    Cl(f) = -0.118455
    Cl(r) = 0.0373047

Time = 42

smoothSolver:  Solving for Ux, Initial residual = 0.0138172, Final residual = 0.00123273, No Iterations 8
smoothSolver:  Solving for Uy, Initial residual = 0.0236691, Final residual = 0.00215294, No Iterations 8
GAMG:  Solving for p, Initial residual = 0.0595931, Final residual = 0.000595642, No Iterations 19
time step continuity errors : sum local = 6.42812e-05, global = 3.36099e-05, cumulative = 0.000209824
smoothSolver:  Solving for omega, Initial residual = 0.00021215, Final residual = 9.75426e-06, No Iterations 3
smoothSolver:  Solving for k, Initial residual = 0.00104029, Final residual = 9.07559e-05, No Iterations 2
ExecutionTime = 1.25 s  ClockTime = 2 s

forceCoeffs forceCoeffs_object write:
    Cm    = -0.0899956
    Cd    = 0.560164
    Cl    = -0.0836251
    Cl(f) = -0.131808
    Cl(r) = 0.0481831

Time = 43

smoothSolver:  Solving for Ux, Initial residual = 0.0126386, Final residual = 0.00108945, No Iterations 8
smoothSolver:  Solving for Uy, Initial residual = 0.0209541, Final residual = 0.00198656, No Iterations 8
GAMG:  Solving for p, Initial residual = 0.0569097, Final residual = 0.000564953, No Iterations 19
time step continuity errors : sum local = 6.32324e-05, global = 3.31199e-05, cumulative = 0.000242944
smoothSolver:  Solving for omega, Initial residual = 0.000196886, Final residual = 9.07223e-06, No Iterations 3
smoothSolver:  Solving for k, Initial residual = 0.000932143, Final residual = 8.33692e-05, No Iterations 2
ExecutionTime = 1.28 s  ClockTime = 2 s

forceCoeffs forceCoeffs_object write:
    Cm    = -0.0987692
    Cd    = 0.568813
    Cl    = -0.0844956
    Cl(f) = -0.141017
    Cl(r) = 0.0565214

Time = 44

smoothSolver:  Solving for Ux, Initial residual = 0.0116571, Final residual = 0.00115647, No Iterations 7
smoothSolver:  Solving for Uy, Initial residual = 0.0191918, Final residual = 0.0018957, No Iterations 8
GAMG:  Solving for p, Initial residual = 0.05213, Final residual = 0.00048672, No Iterations 19
time step continuity errors : sum local = 5.81117e-05, global = 3.04023e-05, cumulative = 0.000273347
smoothSolver:  Solving for omega, Initial residual = 0.000191199, Final residual = 8.49252e-06, No Iterations 3
smoothSolver:  Solving for k, Initial residual = 0.000847504, Final residual = 7.44609e-05, No Iterations 2
ExecutionTime = 1.3 s  ClockTime = 2 s

forceCoeffs forceCoeffs_object write:
    Cm    = -0.102213
    Cd    = 0.566413
    Cl    = -0.0837327
    Cl(f) = -0.144079
    Cl(r) = 0.0603463

Time = 45

smoothSolver:  Solving for Ux, Initial residual = 0.0109102, Final residual = 0.0010722, No Iterations 7
smoothSolver:  Solving for Uy, Initial residual = 0.0180463, Final residual = 0.00155009, No Iterations 9
GAMG:  Solving for p, Initial residual = 0.0436483, Final residual = 0.000427368, No Iterations 18
time step continuity errors : sum local = 5.63894e-05, global = -2.64786e-05, cumulative = 0.000246868
smoothSolver:  Solving for omega, Initial residual = 0.000187901, Final residual = 8.26049e-06, No Iterations 3
smoothSolver:  Solving for k, Initial residual = 0.00080335, Final residual = 7.06891e-05, No Iterations 2
ExecutionTime = 1.33 s  ClockTime = 2 s

forceCoeffs forceCoeffs_object write:
    Cm    = -0.096704
    Cd    = 0.547143
    Cl    = -0.0810893
    Cl(f) = -0.137249
    Cl(r) = 0.0561594

Time = 46

smoothSolver:  Solving for Ux, Initial residual = 0.0102633, Final residual = 0.000995572, No Iterations 7
smoothSolver:  Solving for Uy, Initial residual = 0.0176236, Final residual = 0.00151457, No Iterations 9
GAMG:  Solving for p, Initial residual = 0.0348942, Final residual = 0.000337434, No Iterations 18
time step continuity errors : sum local = 5.05695e-05, global = -2.50546e-05, cumulative = 0.000221813
smoothSolver:  Solving for omega, Initial residual = 0.000185769, Final residual = 8.12075e-06, No Iterations 3
smoothSolver:  Solving for k, Initial residual = 0.000767528, Final residual = 6.9518e-05, No Iterations 2
ExecutionTime = 1.36 s  ClockTime = 2 s

forceCoeffs forceCoeffs_object write:
    Cm    = -0.0824028
    Cd    = 0.512542
    Cl    = -0.0766295
    Cl(f) = -0.120718
    Cl(r) = 0.044088

Time = 47

smoothSolver:  Solving for Ux, Initial residual = 0.00965364, Final residual = 0.000923721, No Iterations 7
smoothSolver:  Solving for Uy, Initial residual = 0.0179652, Final residual = 0.00154351, No Iterations 9
GAMG:  Solving for p, Initial residual = 0.0276152, Final residual = 0.000267127, No Iterations 18
time step continuity errors : sum local = 4.70131e-05, global = -2.24307e-05, cumulative = 0.000199383
smoothSolver:  Solving for omega, Initial residual = 0.000186799, Final residual = 7.93609e-06, No Iterations 3
smoothSolver:  Solving for k, Initial residual = 0.000725429, Final residual = 6.15749e-05, No Iterations 2
ExecutionTime = 1.39 s  ClockTime = 2 s

forceCoeffs forceCoeffs_object write:
    Cm    = -0.0591461
    Cd    = 0.463227
    Cl    = -0.0706033
    Cl(f) = -0.0944478
    Cl(r) = 0.0238444

Time = 48

smoothSolver:  Solving for Ux, Initial residual = 0.00917924, Final residual = 0.000868821, No Iterations 7
smoothSolver:  Solving for Uy, Initial residual = 0.0193589, Final residual = 0.00167287, No Iterations 9
GAMG:  Solving for p, Initial residual = 0.0218922, Final residual = 0.000213025, No Iterations 18
time step continuity errors : sum local = 4.39096e-05, global = -2.03082e-05, cumulative = 0.000179074
smoothSolver:  Solving for omega, Initial residual = 0.00018151, Final residual = 7.79889e-06, No Iterations 3
smoothSolver:  Solving for k, Initial residual = 0.000655084, Final residual = 5.40398e-05, No Iterations 2
ExecutionTime = 1.41 s  ClockTime = 2 s

forceCoeffs forceCoeffs_object write:
    Cm    = -0.0287073
    Cd    = 0.402638
    Cl    = -0.0634844
    Cl(f) = -0.0604495
    Cl(r) = -0.00303487

Time = 49

smoothSolver:  Solving for Ux, Initial residual = 0.00886047, Final residual = 0.000865094, No Iterations 7
smoothSolver:  Solving for Uy, Initial residual = 0.0220536, Final residual = 0.00194593, No Iterations 9
GAMG:  Solving for p, Initial residual = 0.017962, Final residual = 0.000179193, No Iterations 17
time step continuity errors : sum local = 4.22242e-05, global = 1.96521e-05, cumulative = 0.000198727
smoothSolver:  Solving for omega, Initial residual = 0.000182595, Final residual = 7.62861e-06, No Iterations 3
smoothSolver:  Solving for k, Initial residual = 0.000620392, Final residual = 5.16779e-05, No Iterations 2
ExecutionTime = 1.44 s  ClockTime = 2 s

forceCoeffs forceCoeffs_object write:
    Cm    = 0.00654742
    Cd    = 0.335484
    Cl    = -0.056
    Cl(f) = -0.0214526
    Cl(r) = -0.0345474

Time = 50

smoothSolver:  Solving for Ux, Initial residual = 0.00863696, Final residual = 0.000747568, No Iterations 8
smoothSolver:  Solving for Uy, Initial residual = 0.0267236, Final residual = 0.00244357, No Iterations 9
GAMG:  Solving for p, Initial residual = 0.0153154, Final residual = 0.000135727, No Iterations 18
time step continuity errors : sum local = 3.5403e-05, global = 1.69351e-05, cumulative = 0.000215662
smoothSolver:  Solving for omega, Initial residual = 0.000180147, Final residual = 7.64793e-06, No Iterations 3
smoothSolver:  Solving for k, Initial residual = 0.000619645, Final residual = 5.19801e-05, No Iterations 2
ExecutionTime = 1.5 s  ClockTime = 2 s

forceCoeffs forceCoeffs_object write:
    Cm    = 0.0445681
    Cd    = 0.2668
    Cl    = -0.0490229
    Cl(f) = 0.0200566
    Cl(r) = -0.0690795

yPlus yPlus write:
    writing object yPlus
    patch suction_side y+ : min = 6.96102, max = 43.756, average = 23.4782
    patch pressure_side y+ : min = 4.95658, max = 47.8109, average = 30.7121
    patch trailing_edge y+ : min = 93.2485, max = 146.53, average = 119.889

Time = 51

smoothSolver:  Solving for Ux, Initial residual = 0.00838277, Final residual = 0.000764683, No Iterations 8
smoothSolver:  Solving for Uy, Initial residual = 0.0351477, Final residual = 0.003368, No Iterations 9
GAMG:  Solving for p, Initial residual = 0.0143768, Final residual = 0.000129067, No Iterations 20
time step continuity errors : sum local = 3.62363e-05, global = 1.83891e-05, cumulative = 0.000234051
smoothSolver:  Solving for omega, Initial residual = 0.000176718, Final residual = 1.75079e-05, No Iterations 2
smoothSolver:  Solving for k, Initial residual = 0.000631791, Final residual = 5.28359e-05, No Iterations 2
ExecutionTime = 1.53 s  ClockTime = 2 s

forceCoeffs forceCoeffs_object write:
    Cm    = 0.0811848
    Cd    = 0.203357
    Cl    = -0.0435288
    Cl(f) = 0.0594204
    Cl(r) = -0.102949

Time = 52

smoothSolver:  Solving for Ux, Initial residual = 0.00820345, Final residual = 0.000772333, No Iterations 8
smoothSolver:  Solving for Uy, Initial residual = 0.0507968, Final residual = 0.00501819, No Iterations 9
GAMG:  Solving for p, Initial residual = 0.0131347, Final residual = 0.000128953, No Iterations 20
time step continuity errors : sum local = 3.76648e-05, global = 1.98382e-05, cumulative = 0.000253889
smoothSolver:  Solving for omega, Initial residual = 0.000173543, Final residual = 1.71663e-05, No Iterations 2
smoothSolver:  Solving for k, Initial residual = 0.000637654, Final residual = 5.02026e-05, No Iterations 2
ExecutionTime = 1.56 s  ClockTime = 2 s

forceCoeffs forceCoeffs_object write:
    Cm    = 0.113007
    Cd    = 0.151223
    Cl    = -0.0404296
    Cl(f) = 0.0927919
    Cl(r) = -0.133222

Time = 53

smoothSolver:  Solving for Ux, Initial residual = 0.00804618, Final residual = 0.000777332, No Iterations 8
smoothSolver:  Solving for Uy, Initial residual = 0.0805135, Final residual = 0.00699148, No Iterations 10
GAMG:  Solving for p, Initial residual = 0.0125223, Final residual = 0.000123985, No Iterations 19
time step continuity errors : sum local = 3.66648e-05, global = -2.00892e-05, cumulative = 0.0002338
smoothSolver:  Solving for omega, Initial residual = 0.000171958, Final residual = 1.61608e-05, No Iterations 2
smoothSolver:  Solving for k, Initial residual = 0.000640606, Final residual = 4.91075e-05, No Iterations 2
ExecutionTime = 1.59 s  ClockTime = 3 s

forceCoeffs forceCoeffs_object write:
    Cm    = 0.132953
    Cd    = 0.125151
    Cl    = -0.0414931
    Cl(f) = 0.112206
    Cl(r) = -0.153699

Time = 54

smoothSolver:  Solving for Ux, Initial residual = 0.00799762, Final residual = 0.000773196, No Iterations 8
smoothSolver:  Solving for Uy, Initial residual = 0.0982408, Final residual = 0.00981465, No Iterations 9
GAMG:  Solving for p, Initial residual = 0.0127362, Final residual = 0.000118426, No Iterations 19
time step continuity errors : sum local = 3.44465e-05, global = -1.66276e-05, cumulative = 0.000217172
smoothSolver:  Solving for omega, Initial residual = 0.000172693, Final residual = 1.59298e-05, No Iterations 2
smoothSolver:  Solving for k, Initial residual = 0.000660016, Final residual = 4.70709e-05, No Iterations 2
ExecutionTime = 1.62 s  ClockTime = 3 s

forceCoeffs forceCoeffs_object write:
    Cm    = 0.136479
    Cd    = 0.133452
    Cl    = -0.0476354
    Cl(f) = 0.112661
    Cl(r) = -0.160297

Time = 55

smoothSolver:  Solving for Ux, Initial residual = 0.00813458, Final residual = 0.000769011, No Iterations 8
smoothSolver:  Solving for Uy, Initial residual = 0.0835491, Final residual = 0.00820594, No Iterations 9
GAMG:  Solving for p, Initial residual = 0.0139003, Final residual = 0.000128669, No Iterations 18
time step continuity errors : sum local = 3.54295e-05, global = 1.91282e-05, cumulative = 0.0002363
smoothSolver:  Solving for omega, Initial residual = 0.000175193, Final residual = 1.65945e-05, No Iterations 2
smoothSolver:  Solving for k, Initial residual = 0.000681259, Final residual = 5.14599e-05, No Iterations 2
ExecutionTime = 1.64 s  ClockTime = 3 s

forceCoeffs forceCoeffs_object write:
    Cm    = 0.1193
    Cd    = 0.184942
    Cl    = -0.0596944
    Cl(f) = 0.0894532
    Cl(r) = -0.149148

Time = 56

smoothSolver:  Solving for Ux, Initial residual = 0.00859694, Final residual = 0.000777358, No Iterations 8
smoothSolver:  Solving for Uy, Initial residual = 0.0860309, Final residual = 0.00816701, No Iterations 9
GAMG:  Solving for p, Initial residual = 0.015068, Final residual = 0.000149828, No Iterations 18
time step continuity errors : sum local = 3.74684e-05, global = 1.80492e-05, cumulative = 0.000254349
smoothSolver:  Solving for omega, Initial residual = 0.000179522, Final residual = 7.71168e-06, No Iterations 3
smoothSolver:  Solving for k, Initial residual = 0.000732269, Final residual = 5.58534e-05, No Iterations 2
ExecutionTime = 1.67 s  ClockTime = 3 s

forceCoeffs forceCoeffs_object write:
    Cm    = 0.0908802
    Cd    = 0.262847
    Cl    = -0.0758769
    Cl(f) = 0.0529417
    Cl(r) = -0.128819

Time = 57

smoothSolver:  Solving for Ux, Initial residual = 0.00924779, Final residual = 0.000815108, No Iterations 8
smoothSolver:  Solving for Uy, Initial residual = 0.104376, Final residual = 0.00987078, No Iterations 9
GAMG:  Solving for p, Initial residual = 0.0162962, Final residual = 0.000162319, No Iterations 18
time step continuity errors : sum local = 3.52563e-05, global = 1.53041e-05, cumulative = 0.000269654
smoothSolver:  Solving for omega, Initial residual = 0.000182891, Final residual = 8.53714e-06, No Iterations 3
smoothSolver:  Solving for k, Initial residual = 0.000776536, Final residual = 6.5986e-05, No Iterations 2
ExecutionTime = 1.7 s  ClockTime = 3 s

forceCoeffs forceCoeffs_object write:
    Cm    = 0.0622912
    Cd    = 0.343929
    Cl    = -0.0922693
    Cl(f) = 0.0161566
    Cl(r) = -0.108426

Time = 58

smoothSolver:  Solving for Ux, Initial residual = 0.00995953, Final residual = 0.000873328, No Iterations 8
smoothSolver:  Solving for Uy, Initial residual = 0.12281, Final residual = 0.0116413, No Iterations 9
GAMG:  Solving for p, Initial residual = 0.0176369, Final residual = 0.000165375, No Iterations 18
time step continuity errors : sum local = 3.05199e-05, global = 1.15721e-05, cumulative = 0.000281226
smoothSolver:  Solving for omega, Initial residual = 0.000180674, Final residual = 9.29204e-06, No Iterations 3
smoothSolver:  Solving for k, Initial residual = 0.000801894, Final residual = 7.43522e-05, No Iterations 2
ExecutionTime = 1.72 s  ClockTime = 3 s

forceCoeffs forceCoeffs_object write:
    Cm    = 0.0439888
    Cd    = 0.401349
    Cl    = -0.104929
    Cl(f) = -0.00847594
    Cl(r) = -0.0964535

Time = 59

smoothSolver:  Solving for Ux, Initial residual = 0.0102653, Final residual = 0.000893751, No Iterations 8
smoothSolver:  Solving for Uy, Initial residual = 0.0943115, Final residual = 0.00884242, No Iterations 9
GAMG:  Solving for p, Initial residual = 0.0178625, Final residual = 0.000169833, No Iterations 17
time step continuity errors : sum local = 2.72261e-05, global = -9.77074e-06, cumulative = 0.000271455
smoothSolver:  Solving for omega, Initial residual = 0.000177478, Final residual = 9.94352e-06, No Iterations 3
smoothSolver:  Solving for k, Initial residual = 0.000788523, Final residual = 7.8427e-05, No Iterations 2
ExecutionTime = 1.75 s  ClockTime = 3 s

forceCoeffs forceCoeffs_object write:
    Cm    = 0.0307033
    Cd    = 0.446544
    Cl    = -0.1153
    Cl(f) = -0.0269465
    Cl(r) = -0.0883531

Time = 60

smoothSolver:  Solving for Ux, Initial residual = 0.0103639, Final residual = 0.000888616, No Iterations 8
smoothSolver:  Solving for Uy, Initial residual = 0.0613704, Final residual = 0.00578413, No Iterations 9
GAMG:  Solving for p, Initial residual = 0.0170018, Final residual = 0.000159359, No Iterations 17
time step continuity errors : sum local = 2.33292e-05, global = -1.05732e-05, cumulative = 0.000260882
smoothSolver:  Solving for omega, Initial residual = 0.000167454, Final residual = 9.61035e-06, No Iterations 3
smoothSolver:  Solving for k, Initial residual = 0.000759184, Final residual = 7.52143e-05, No Iterations 2
ExecutionTime = 1.77 s  ClockTime = 3 s

forceCoeffs forceCoeffs_object write:
    Cm    = 0.0204398
    Cd    = 0.484076
    Cl    = -0.124144
    Cl(f) = -0.0416322
    Cl(r) = -0.0825119

Time = 61

smoothSolver:  Solving for Ux, Initial residual = 0.0102012, Final residual = 0.000859742, No Iterations 8
smoothSolver:  Solving for Uy, Initial residual = 0.0408638, Final residual = 0.00390007, No Iterations 9
GAMG:  Solving for p, Initial residual = 0.0166279, Final residual = 0.000157459, No Iterations 17
time step continuity errors : sum local = 2.19959e-05, global = -1.12985e-05, cumulative = 0.000249583
smoothSolver:  Solving for omega, Initial residual = 0.0001562, Final residual = 8.97854e-06, No Iterations 3
smoothSolver:  Solving for k, Initial residual = 0.000719507, Final residual = 7.04813e-05, No Iterations 2
ExecutionTime = 1.8 s  ClockTime = 3 s

forceCoeffs forceCoeffs_object write:
    Cm    = 0.0136719
    Cd    = 0.513171
    Cl    = -0.13149
    Cl(f) = -0.0520733
    Cl(r) = -0.079417

Time = 62

smoothSolver:  Solving for Ux, Initial residual = 0.00976506, Final residual = 0.000970167, No Iterations 7
smoothSolver:  Solving for Uy, Initial residual = 0.0291977, Final residual = 0.00282927, No Iterations 9
GAMG:  Solving for p, Initial residual = 0.0181777, Final residual = 0.000159435, No Iterations 17
time step continuity errors : sum local = 2.15416e-05, global = -1.02492e-05, cumulative = 0.000239334
smoothSolver:  Solving for omega, Initial residual = 0.000148122, Final residual = 8.51094e-06, No Iterations 3
smoothSolver:  Solving for k, Initial residual = 0.000697145, Final residual = 6.71666e-05, No Iterations 2
ExecutionTime = 1.83 s  ClockTime = 3 s

forceCoeffs forceCoeffs_object write:
    Cm    = 0.0104591
    Cd    = 0.53374
    Cl    = -0.137322
    Cl(f) = -0.058202
    Cl(r) = -0.0791203

Time = 63

smoothSolver:  Solving for Ux, Initial residual = 0.00925854, Final residual = 0.000909462, No Iterations 7
smoothSolver:  Solving for Uy, Initial residual = 0.0225603, Final residual = 0.00223532, No Iterations 9
GAMG:  Solving for p, Initial residual = 0.0184144, Final residual = 0.000137996, No Iterations 17
time step continuity errors : sum local = 1.81148e-05, global = -6.2167e-06, cumulative = 0.000233117
smoothSolver:  Solving for omega, Initial residual = 0.000144113, Final residual = 8.31697e-06, No Iterations 3
smoothSolver:  Solving for k, Initial residual = 0.000689082, Final residual = 6.54609e-05, No Iterations 2
ExecutionTime = 1.85 s  ClockTime = 3 s

forceCoeffs forceCoeffs_object write:
    Cm    = 0.0107184
    Cd    = 0.546932
    Cl    = -0.141928
    Cl(f) = -0.0602458
    Cl(r) = -0.0816825

Time = 64

smoothSolver:  Solving for Ux, Initial residual = 0.00876542, Final residual = 0.000861429, No Iterations 7
smoothSolver:  Solving for Uy, Initial residual = 0.0187491, Final residual = 0.00163116, No Iterations 10
GAMG:  Solving for p, Initial residual = 0.0179349, Final residual = 0.000150018, No Iterations 16
time step continuity errors : sum local = 1.94494e-05, global = -4.78706e-06, cumulative = 0.00022833
smoothSolver:  Solving for omega, Initial residual = 0.000141891, Final residual = 8.21592e-06, No Iterations 3
smoothSolver:  Solving for k, Initial residual = 0.000675151, Final residual = 6.48108e-05, No Iterations 2
ExecutionTime = 1.87 s  ClockTime = 3 s

forceCoeffs forceCoeffs_object write:
    Cm    = 0.0151498
    Cd    = 0.552021
    Cl    = -0.145351
    Cl(f) = -0.0575256
    Cl(r) = -0.0878253

Time = 65

smoothSolver:  Solving for Ux, Initial residual = 0.00839763, Final residual = 0.000697303, No Iterations 8
smoothSolver:  Solving for Uy, Initial residual = 0.0164387, Final residual = 0.00143265, No Iterations 10
GAMG:  Solving for p, Initial residual = 0.0176056, Final residual = 0.000154259, No Iterations 16
time step continuity errors : sum local = 1.99803e-05, global = -4.29108e-06, cumulative = 0.000224039
smoothSolver:  Solving for omega, Initial residual = 0.000140556, Final residual = 8.10716e-06, No Iterations 3
smoothSolver:  Solving for k, Initial residual = 0.00065166, Final residual = 6.06569e-05, No Iterations 2
ExecutionTime = 1.9 s  ClockTime = 3 s

forceCoeffs forceCoeffs_object write:
    Cm    = 0.0238135
    Cd    = 0.549203
    Cl    = -0.147642
    Cl(f) = -0.0500073
    Cl(r) = -0.0976344

Time = 66

smoothSolver:  Solving for Ux, Initial residual = 0.00817949, Final residual = 0.000712858, No Iterations 8
smoothSolver:  Solving for Uy, Initial residual = 0.0151222, Final residual = 0.00131959, No Iterations 10
GAMG:  Solving for p, Initial residual = 0.0161441, Final residual = 0.00014226, No Iterations 18
time step continuity errors : sum local = 1.85954e-05, global = -5.07697e-06, cumulative = 0.000218962
smoothSolver:  Solving for omega, Initial residual = 0.00013853, Final residual = 7.68861e-06, No Iterations 3
smoothSolver:  Solving for k, Initial residual = 0.000606001, Final residual = 5.87758e-05, No Iterations 2
ExecutionTime = 1.93 s  ClockTime = 3 s

forceCoeffs forceCoeffs_object write:
    Cm    = 0.0354868
    Cd    = 0.540489
    Cl    = -0.149174
    Cl(f) = -0.0390999
    Cl(r) = -0.110074

Time = 67

smoothSolver:  Solving for Ux, Initial residual = 0.00814043, Final residual = 0.000757769, No Iterations 8
smoothSolver:  Solving for Uy, Initial residual = 0.0145762, Final residual = 0.00127092, No Iterations 10
GAMG:  Solving for p, Initial residual = 0.0142561, Final residual = 0.00012027, No Iterations 20
time step continuity errors : sum local = 1.60854e-05, global = -5.41592e-06, cumulative = 0.000213546
smoothSolver:  Solving for omega, Initial residual = 0.000136126, Final residual = 7.29403e-06, No Iterations 3
smoothSolver:  Solving for k, Initial residual = 0.000550907, Final residual = 5.30334e-05, No Iterations 2
ExecutionTime = 1.96 s  ClockTime = 3 s

forceCoeffs forceCoeffs_object write:
    Cm    = 0.0485478
    Cd    = 0.529168
    Cl    = -0.150578
    Cl(f) = -0.0267412
    Cl(r) = -0.123837

Time = 68

smoothSolver:  Solving for Ux, Initial residual = 0.00812849, Final residual = 0.000807282, No Iterations 8
smoothSolver:  Solving for Uy, Initial residual = 0.0146874, Final residual = 0.00127297, No Iterations 10
GAMG:  Solving for p, Initial residual = 0.0135413, Final residual = 0.000129306, No Iterations 20
time step continuity errors : sum local = 1.78303e-05, global = -6.90591e-06, cumulative = 0.00020664
smoothSolver:  Solving for omega, Initial residual = 0.00013186, Final residual = 6.85245e-06, No Iterations 3
smoothSolver:  Solving for k, Initial residual = 0.000485632, Final residual = 4.64514e-05, No Iterations 2
ExecutionTime = 1.98 s  ClockTime = 3 s

forceCoeffs forceCoeffs_object write:
    Cm    = 0.0606366
    Cd    = 0.519666
    Cl    = -0.152507
    Cl(f) = -0.0156169
    Cl(r) = -0.13689

Time = 69

smoothSolver:  Solving for Ux, Initial residual = 0.00803727, Final residual = 0.000711942, No Iterations 9
smoothSolver:  Solving for Uy, Initial residual = 0.0154144, Final residual = 0.00153506, No Iterations 9
GAMG:  Solving for p, Initial residual = 0.012813, Final residual = 0.000121958, No Iterations 19
time step continuity errors : sum local = 1.73988e-05, global = 8.56132e-06, cumulative = 0.000215202
smoothSolver:  Solving for omega, Initial residual = 0.000126972, Final residual = 6.3874e-06, No Iterations 3
smoothSolver:  Solving for k, Initial residual = 0.000434215, Final residual = 4.08604e-05, No Iterations 2
ExecutionTime = 2.01 s  ClockTime = 3 s

forceCoeffs forceCoeffs_object write:
    Cm    = 0.0683336
    Cd    = 0.519078
    Cl    = -0.155975
    Cl(f) = -0.00965377
    Cl(r) = -0.146321

Time = 70

smoothSolver:  Solving for Ux, Initial residual = 0.00786054, Final residual = 0.000705886, No Iterations 9
smoothSolver:  Solving for Uy, Initial residual = 0.0167689, Final residual = 0.0016618, No Iterations 9
GAMG:  Solving for p, Initial residual = 0.0124631, Final residual = 0.000112705, No Iterations 18
time step continuity errors : sum local = 1.6485e-05, global = -7.07906e-06, cumulative = 0.000208123
smoothSolver:  Solving for omega, Initial residual = 0.000123765, Final residual = 5.92266e-06, No Iterations 3
smoothSolver:  Solving for k, Initial residual = 0.000411966, Final residual = 3.73262e-05, No Iterations 2
ExecutionTime = 2.04 s  ClockTime = 3 s

forceCoeffs forceCoeffs_object write:
    Cm    = 0.0694771
    Cd    = 0.531061
    Cl    = -0.161401
    Cl(f) = -0.0112234
    Cl(r) = -0.150178

Time = 71

smoothSolver:  Solving for Ux, Initial residual = 0.00767376, Final residual = 0.000678783, No Iterations 9
smoothSolver:  Solving for Uy, Initial residual = 0.0182956, Final residual = 0.00182293, No Iterations 9
GAMG:  Solving for p, Initial residual = 0.0113649, Final residual = 0.000113176, No Iterations 17
time step continuity errors : sum local = 1.67656e-05, global = 7.02543e-06, cumulative = 0.000215148
smoothSolver:  Solving for omega, Initial residual = 0.000123478, Final residual = 5.61757e-06, No Iterations 3
smoothSolver:  Solving for k, Initial residual = 0.000409834, Final residual = 3.49748e-05, No Iterations 2
ExecutionTime = 2.07 s  ClockTime = 3 s

forceCoeffs forceCoeffs_object write:
    Cm    = 0.0636071
    Cd    = 0.556356
    Cl    = -0.16866
    Cl(f) = -0.0207227
    Cl(r) = -0.147937

Time = 72

smoothSolver:  Solving for Ux, Initial residual = 0.00745383, Final residual = 0.000638087, No Iterations 9
smoothSolver:  Solving for Uy, Initial residual = 0.0194226, Final residual = 0.00169878, No Iterations 10
GAMG:  Solving for p, Initial residual = 0.0103475, Final residual = 9.06322e-05, No Iterations 16
time step continuity errors : sum local = 1.33683e-05, global = -5.73867e-06, cumulative = 0.000209409
smoothSolver:  Solving for omega, Initial residual = 0.000123342, Final residual = 5.5619e-06, No Iterations 3
smoothSolver:  Solving for k, Initial residual = 0.000415473, Final residual = 3.46732e-05, No Iterations 2
ExecutionTime = 2.09 s  ClockTime = 3 s

forceCoeffs forceCoeffs_object write:
    Cm    = 0.0536772
    Cd    = 0.589441
    Cl    = -0.176477
    Cl(f) = -0.0345616
    Cl(r) = -0.141916

Time = 73

smoothSolver:  Solving for Ux, Initial residual = 0.00722297, Final residual = 0.000704328, No Iterations 8
smoothSolver:  Solving for Uy, Initial residual = 0.0198828, Final residual = 0.00174057, No Iterations 10
GAMG:  Solving for p, Initial residual = 0.00972513, Final residual = 8.62151e-05, No Iterations 16
time step continuity errors : sum local = 1.25107e-05, global = 4.8883e-06, cumulative = 0.000214298
smoothSolver:  Solving for omega, Initial residual = 0.000123019, Final residual = 5.55685e-06, No Iterations 3
smoothSolver:  Solving for k, Initial residual = 0.000423324, Final residual = 3.41773e-05, No Iterations 2
ExecutionTime = 2.12 s  ClockTime = 3 s


SIMPLE solution converged in 73 iterations

forceCoeffs forceCoeffs_object write:
    Cm    = 0.0453554
    Cd    = 0.618879
    Cl    = -0.183577
    Cl(f) = -0.0464333
    Cl(r) = -0.137144

yPlus yPlus write:
    writing object yPlus
    patch suction_side y+ : min = 8.76337, max = 52.8288, average = 25.0105
    patch pressure_side y+ : min = 5.04967, max = 39.8698, average = 28.4486
    patch trailing_edge y+ : min = 91.2525, max = 132.289, average = 111.771

End

