/*---------------------------------------------------------------------------*\
  =========                 |
  \\      /  F ield         | OpenFOAM: The Open Source CFD Toolbox
   \\    /   O peration     | Website:  https://openfoam.org
    \\  /    A nd           | Version:  7
     \\/     M anipulation  |
\*---------------------------------------------------------------------------*/
Build  : 7-3bcbaf946ae9
Exec   : simpleFoam
Date   : May 14 2022
Time   : 04:51:08
Host   : "Lubuntu"
PID    : 47119
I/O    : uncollated
Case   : /home/ensm_student/Documents/CFD/Rechnerubung/Week2/Aufgabe2/RANS
nProcs : 1
sigFpe : Enabling floating point exception trapping (FOAM_SIGFPE).
fileModificationChecking : Monitoring run-time modified files using timeStampMaster (fileModificationSkew 10)
allowSystemOperations : Allowing user-supplied system call operations

// * * * * * * * * * * * * * * * * * * * * * * * * * * * * * * * * * * * * * //
Create time

Using #calcEntry at line 9 in file "/home/ensm_student/Documents/CFD/Rechnerubung/Week2/Aufgabe2/RANS/system/controlDict.functions.sample"
Using #codeStream with "/home/ensm_student/Documents/CFD/Rechnerubung/Week2/Aufgabe2/RANS/dynamicCode/platforms/linux64GccDPInt32Opt/lib/libcodeStream_5515ac93b64c0a82bdaaf3ed0854faf0d4d67d38.so"
Using #calcEntry at line 25 in file "/home/ensm_student/Documents/CFD/Rechnerubung/Week2/Aufgabe2/RANS/system/controlDict.functions.sample"
Using #codeStream with "/home/ensm_student/Documents/CFD/Rechnerubung/Week2/Aufgabe2/RANS/dynamicCode/platforms/linux64GccDPInt32Opt/lib/libcodeStream_374ca1b9dc86ccc3095389a43130c0b38e24df3f.so"
Create mesh for time = 0


SIMPLE: Convergence criteria found
        p: tolerance 0.01
        U: tolerance 0.01
        "(k|epsilon)": tolerance 0.001

Reading field p

--> FOAM Warning : 
    From function const Foam::HashTable<Foam::List<int>, Foam::word>& Foam::polyBoundaryMesh::groupPatchIDs() const
    in file meshes/polyMesh/polyBoundaryMesh/polyBoundaryMesh.C at line 473
    Removing patchGroup 'wall' which clashes with patch 2 of the same name.
Reading field U

Reading/calculating face flux field phi

Selecting incompressible transport model Newtonian
Selecting turbulence model type RAS
Selecting RAS turbulence model kOmegaSST
Selecting patchDistMethod meshWave
RAS
{
    RASModel        kOmegaSST;
    turbulence      on;
    printCoeffs     on;
    alphaK1         0.85;
    alphaK2         1;
    alphaOmega1     0.5;
    alphaOmega2     0.856;
    gamma1          0.555556;
    gamma2          0.44;
    beta1           0.075;
    beta2           0.0828;
    betaStar        0.09;
    a1              0.31;
    b1              1;
    c1              10;
    F3              false;
}

No MRF models present

Creating finite volume options from "constant/fvOptions"

Using #calcEntry at line 18 in file "/home/ensm_student/Documents/CFD/Rechnerubung/Week2/Aufgabe2/RANS/constant/fvOptions"
Using #codeStream with "/home/ensm_student/Documents/CFD/Rechnerubung/Week2/Aufgabe2/RANS/dynamicCode/platforms/linux64GccDPInt32Opt/lib/libcodeStream_113ffe69c640b6197b21ded9a2590d8bb20ec346.so"
Creating new library in "dynamicCode/_113ffe69c640b6197b21ded9a2590d8bb20ec346/platforms/linux64GccDPInt32Opt/lib/libcodeStream_113ffe69c640b6197b21ded9a2590d8bb20ec346.so"
Invoking "wmake -s libso /home/ensm_student/Documents/CFD/Rechnerubung/Week2/Aufgabe2/RANS/dynamicCode/_113ffe69c640b6197b21ded9a2590d8bb20ec346"
wmake libso /home/ensm_student/Documents/CFD/Rechnerubung/Week2/Aufgabe2/RANS/dynamicCode/_113ffe69c640b6197b21ded9a2590d8bb20ec346
    ln: ./lnInclude
    wmkdep: codeStreamTemplate.C
    Ctoo: codeStreamTemplate.C
    ld: /home/ensm_student/Documents/CFD/Rechnerubung/Week2/Aufgabe2/RANS/dynamicCode/_113ffe69c640b6197b21ded9a2590d8bb20ec346/../platforms/linux64GccDPInt32Opt/lib/libcodeStream_113ffe69c640b6197b21ded9a2590d8bb20ec346.so
Selecting finite volume options model type vectorSemiImplicitSource
    Source: momentumSource
    - selecting all cells
    - selected 150 cell(s) with volume 3.61e+06

Starting time loop

Reading set description:
    wallNormal

Using dynamicCode for functionObject calcGradU at line 54 in "/home/ensm_student/Documents/CFD/Rechnerubung/Week2/Aufgabe2/RANS/system/controlDict.functions.calcGradU"
Creating new library in "dynamicCode/calcGradU/platforms/linux64GccDPInt32Opt/lib/libcalcGradU_f0d97ebb7ad3dce54b3e67499a59844095d42ae8.so"
Invoking "wmake -s libso /home/ensm_student/Documents/CFD/Rechnerubung/Week2/Aufgabe2/RANS/dynamicCode/calcGradU"
wmake libso /home/ensm_student/Documents/CFD/Rechnerubung/Week2/Aufgabe2/RANS/dynamicCode/calcGradU
    ln: ./lnInclude
    wmkdep: functionObjectTemplate.C
    Ctoo: functionObjectTemplate.C
    ld: /home/ensm_student/Documents/CFD/Rechnerubung/Week2/Aufgabe2/RANS/dynamicCode/calcGradU/../platforms/linux64GccDPInt32Opt/lib/libcalcGradU_f0d97ebb7ad3dce54b3e67499a59844095d42ae8.so
Time = 1

smoothSolver:  Solving for Ux, Initial residual = 1, Final residual = 0.0890387, No Iterations 6
smoothSolver:  Solving for Uy, Initial residual = 0, Final residual = 0, No Iterations 0
GAMG:  Solving for p, Initial residual = 1, Final residual = 0.0199306, No Iterations 2
time step continuity errors : sum local = 1.42327e-06, global = -4.07061e-19, cumulative = -4.07061e-19
smoothSolver:  Solving for omega, Initial residual = 0.99729, Final residual = 0.00723541, No Iterations 1
smoothSolver:  Solving for k, Initial residual = 1, Final residual = 0.0766738, No Iterations 1
bounding k, min: -0.00063712 max: 0.000906743 average: 0.000367572
ExecutionTime = 0.01 s  ClockTime = 6 s

Calculating grad(U).
Time = 2

smoothSolver:  Solving for Ux, Initial residual = 0.0202182, Final residual = 0.00199615, No Iterations 5
smoothSolver:  Solving for Uy, Initial residual = 0.733298, Final residual = 0.0304793, No Iterations 1
GAMG:  Solving for p, Initial residual = 0.978136, Final residual = 0.071563, No Iterations 3
time step continuity errors : sum local = 2.03711e-06, global = -3.4168e-19, cumulative = -7.48741e-19
smoothSolver:  Solving for omega, Initial residual = 0.862528, Final residual = 0.0559506, No Iterations 1
smoothSolver:  Solving for k, Initial residual = 0.766387, Final residual = 0.0441133, No Iterations 1
ExecutionTime = 0.01 s  ClockTime = 6 s

Calculating grad(U).
Time = 3

smoothSolver:  Solving for Ux, Initial residual = 0.0103047, Final residual = 0.000854409, No Iterations 7
smoothSolver:  Solving for Uy, Initial residual = 0.689966, Final residual = 0.0440211, No Iterations 1
GAMG:  Solving for p, Initial residual = 0.201894, Final residual = 0.0169546, No Iterations 4
time step continuity errors : sum local = 1.40618e-06, global = -5.83057e-19, cumulative = -1.3318e-18
smoothSolver:  Solving for omega, Initial residual = 0.36927, Final residual = 0.0257124, No Iterations 1
smoothSolver:  Solving for k, Initial residual = 0.750284, Final residual = 0.0566968, No Iterations 1
ExecutionTime = 0.01 s  ClockTime = 6 s

Calculating grad(U).
Time = 4

smoothSolver:  Solving for Ux, Initial residual = 0.0082134, Final residual = 0.000628992, No Iterations 8
smoothSolver:  Solving for Uy, Initial residual = 0.664454, Final residual = 0.0307667, No Iterations 1
GAMG:  Solving for p, Initial residual = 0.104036, Final residual = 0.00898802, No Iterations 4
time step continuity errors : sum local = 9.00124e-07, global = -4.36062e-19, cumulative = -1.76786e-18
smoothSolver:  Solving for omega, Initial residual = 0.116956, Final residual = 0.00609987, No Iterations 2
smoothSolver:  Solving for k, Initial residual = 0.241828, Final residual = 0.00682721, No Iterations 3
ExecutionTime = 0.01 s  ClockTime = 6 s

Calculating grad(U).
Time = 5

smoothSolver:  Solving for Ux, Initial residual = 0.00759385, Final residual = 0.000658222, No Iterations 8
smoothSolver:  Solving for Uy, Initial residual = 0.802785, Final residual = 0.0502614, No Iterations 1
GAMG:  Solving for p, Initial residual = 0.102551, Final residual = 0.00895007, No Iterations 4
time step continuity errors : sum local = 5.7471e-07, global = 4.09587e-20, cumulative = -1.7269e-18
smoothSolver:  Solving for omega, Initial residual = 0.0236776, Final residual = 0.000923299, No Iterations 2
smoothSolver:  Solving for k, Initial residual = 0.246269, Final residual = 0.0244812, No Iterations 2
ExecutionTime = 0.01 s  ClockTime = 6 s

Calculating grad(U).
Time = 6

smoothSolver:  Solving for Ux, Initial residual = 0.00755603, Final residual = 0.000659297, No Iterations 8
smoothSolver:  Solving for Uy, Initial residual = 0.879632, Final residual = 0.0618637, No Iterations 1
GAMG:  Solving for p, Initial residual = 0.0565, Final residual = 0.00534184, No Iterations 3
time step continuity errors : sum local = 3.01792e-07, global = -1.77795e-19, cumulative = -1.9047e-18
smoothSolver:  Solving for omega, Initial residual = 0.0112292, Final residual = 0.000382463, No Iterations 3
smoothSolver:  Solving for k, Initial residual = 0.2269, Final residual = 0.0104609, No Iterations 3
ExecutionTime = 0.01 s  ClockTime = 6 s

Calculating grad(U).
Time = 7

smoothSolver:  Solving for Ux, Initial residual = 0.00754153, Final residual = 0.000654005, No Iterations 8
smoothSolver:  Solving for Uy, Initial residual = 0.71955, Final residual = 0.0529329, No Iterations 2
GAMG:  Solving for p, Initial residual = 0.0754557, Final residual = 0.00624616, No Iterations 4
time step continuity errors : sum local = 2.89548e-07, global = -3.14632e-19, cumulative = -2.21933e-18
smoothSolver:  Solving for omega, Initial residual = 0.0067063, Final residual = 0.000210206, No Iterations 3
smoothSolver:  Solving for k, Initial residual = 0.214117, Final residual = 0.0143049, No Iterations 3
ExecutionTime = 0.01 s  ClockTime = 6 s

Calculating grad(U).
Time = 8

smoothSolver:  Solving for Ux, Initial residual = 0.00751461, Final residual = 0.000652891, No Iterations 8
smoothSolver:  Solving for Uy, Initial residual = 0.522508, Final residual = 0.0381529, No Iterations 3
GAMG:  Solving for p, Initial residual = 0.0572705, Final residual = 0.00389032, No Iterations 4
time step continuity errors : sum local = 1.99083e-07, global = -6.74125e-20, cumulative = -2.28674e-18
smoothSolver:  Solving for omega, Initial residual = 0.00351126, Final residual = 0.000234564, No Iterations 2
smoothSolver:  Solving for k, Initial residual = 0.205866, Final residual = 0.0134162, No Iterations 3
ExecutionTime = 0.01 s  ClockTime = 6 s

Calculating grad(U).
Time = 9

smoothSolver:  Solving for Ux, Initial residual = 0.00748823, Final residual = 0.000653401, No Iterations 8
smoothSolver:  Solving for Uy, Initial residual = 0.630749, Final residual = 0.0448187, No Iterations 2
GAMG:  Solving for p, Initial residual = 0.0442404, Final residual = 0.00415349, No Iterations 3
time step continuity errors : sum local = 2.1306e-07, global = -1.4539e-19, cumulative = -2.43213e-18
smoothSolver:  Solving for omega, Initial residual = 0.00274975, Final residual = 0.000209859, No Iterations 3
smoothSolver:  Solving for k, Initial residual = 0.184415, Final residual = 0.00807734, No Iterations 3
ExecutionTime = 0.02 s  ClockTime = 6 s

Calculating grad(U).
Time = 10

smoothSolver:  Solving for Ux, Initial residual = 0.00746334, Final residual = 0.000652782, No Iterations 8
smoothSolver:  Solving for Uy, Initial residual = 0.689586, Final residual = 0.0499888, No Iterations 2
GAMG:  Solving for p, Initial residual = 0.0413639, Final residual = 0.00328988, No Iterations 3
time step continuity errors : sum local = 1.63477e-07, global = -1.58355e-19, cumulative = -2.59049e-18
smoothSolver:  Solving for omega, Initial residual = 0.00149419, Final residual = 4.36098e-05, No Iterations 3
smoothSolver:  Solving for k, Initial residual = 0.175694, Final residual = 0.0106767, No Iterations 3
ExecutionTime = 0.02 s  ClockTime = 6 s

Calculating grad(U).
Time = 11

smoothSolver:  Solving for Ux, Initial residual = 0.00743796, Final residual = 0.000651296, No Iterations 8
smoothSolver:  Solving for Uy, Initial residual = 0.688053, Final residual = 0.0487527, No Iterations 2
GAMG:  Solving for p, Initial residual = 0.0395708, Final residual = 0.00335541, No Iterations 3
time step continuity errors : sum local = 1.61841e-07, global = -1.52562e-19, cumulative = -2.74305e-18
smoothSolver:  Solving for omega, Initial residual = 0.0015712, Final residual = 4.30168e-05, No Iterations 3
smoothSolver:  Solving for k, Initial residual = 0.195823, Final residual = 0.0104889, No Iterations 3
ExecutionTime = 0.02 s  ClockTime = 6 s

Calculating grad(U).
Time = 12

smoothSolver:  Solving for Ux, Initial residual = 0.00741258, Final residual = 0.000649774, No Iterations 8
smoothSolver:  Solving for Uy, Initial residual = 0.645435, Final residual = 0.0453103, No Iterations 2
GAMG:  Solving for p, Initial residual = 0.0370181, Final residual = 0.0032351, No Iterations 3
time step continuity errors : sum local = 1.54548e-07, global = -5.64857e-19, cumulative = -3.3079e-18
smoothSolver:  Solving for omega, Initial residual = 0.00117181, Final residual = 5.52037e-05, No Iterations 3
smoothSolver:  Solving for k, Initial residual = 0.185607, Final residual = 0.00961445, No Iterations 3
ExecutionTime = 0.02 s  ClockTime = 6 s

Calculating grad(U).
Time = 13

smoothSolver:  Solving for Ux, Initial residual = 0.00738567, Final residual = 0.000648101, No Iterations 8
smoothSolver:  Solving for Uy, Initial residual = 0.600569, Final residual = 0.0427855, No Iterations 2
GAMG:  Solving for p, Initial residual = 0.0336132, Final residual = 0.00307643, No Iterations 3
time step continuity errors : sum local = 1.45665e-07, global = 1.64121e-20, cumulative = -3.29149e-18
smoothSolver:  Solving for omega, Initial residual = 0.00119146, Final residual = 2.71854e-05, No Iterations 3
smoothSolver:  Solving for k, Initial residual = 0.153884, Final residual = 0.00928454, No Iterations 3
ExecutionTime = 0.02 s  ClockTime = 6 s

Calculating grad(U).
Time = 14

smoothSolver:  Solving for Ux, Initial residual = 0.00735821, Final residual = 0.000646276, No Iterations 8
smoothSolver:  Solving for Uy, Initial residual = 0.573095, Final residual = 0.0419995, No Iterations 2
GAMG:  Solving for p, Initial residual = 0.0307253, Final residual = 0.0027229, No Iterations 3
time step continuity errors : sum local = 1.30122e-07, global = -7.0912e-19, cumulative = -4.00061e-18
smoothSolver:  Solving for omega, Initial residual = 0.000957219, Final residual = 2.7262e-05, No Iterations 3
smoothSolver:  Solving for k, Initial residual = 0.155303, Final residual = 0.0105651, No Iterations 3
ExecutionTime = 0.02 s  ClockTime = 6 s

Calculating grad(U).
Time = 15

smoothSolver:  Solving for Ux, Initial residual = 0.00732953, Final residual = 0.000644228, No Iterations 8
smoothSolver:  Solving for Uy, Initial residual = 0.551413, Final residual = 0.0405636, No Iterations 2
GAMG:  Solving for p, Initial residual = 0.0280533, Final residual = 0.00258899, No Iterations 3
time step continuity errors : sum local = 1.20605e-07, global = -1.28593e-19, cumulative = -4.12921e-18
smoothSolver:  Solving for omega, Initial residual = 0.000963289, Final residual = 4.00243e-05, No Iterations 3
smoothSolver:  Solving for k, Initial residual = 0.144808, Final residual = 0.00645916, No Iterations 3
ExecutionTime = 0.02 s  ClockTime = 6 s

Calculating grad(U).
Time = 16

smoothSolver:  Solving for Ux, Initial residual = 0.00730065, Final residual = 0.000642037, No Iterations 8
smoothSolver:  Solving for Uy, Initial residual = 0.52268, Final residual = 0.0394614, No Iterations 2
GAMG:  Solving for p, Initial residual = 0.0256677, Final residual = 0.00233268, No Iterations 3
time step continuity errors : sum local = 1.10591e-07, global = -4.9011e-19, cumulative = -4.61932e-18
smoothSolver:  Solving for omega, Initial residual = 0.000887571, Final residual = 2.1923e-05, No Iterations 3
smoothSolver:  Solving for k, Initial residual = 0.143806, Final residual = 0.0100457, No Iterations 3
ExecutionTime = 0.02 s  ClockTime = 6 s

Calculating grad(U).
Time = 17

smoothSolver:  Solving for Ux, Initial residual = 0.00726897, Final residual = 0.000639512, No Iterations 8
smoothSolver:  Solving for Uy, Initial residual = 0.498773, Final residual = 0.0377854, No Iterations 2
GAMG:  Solving for p, Initial residual = 0.0232822, Final residual = 0.00212154, No Iterations 3
time step continuity errors : sum local = 9.95138e-08, global = -1.16615e-18, cumulative = -5.78547e-18
smoothSolver:  Solving for omega, Initial residual = 0.000825728, Final residual = 2.03638e-05, No Iterations 3
smoothSolver:  Solving for k, Initial residual = 0.140778, Final residual = 0.00705678, No Iterations 3
ExecutionTime = 0.02 s  ClockTime = 6 s

Calculating grad(U).
Time = 18

smoothSolver:  Solving for Ux, Initial residual = 0.00723663, Final residual = 0.000636781, No Iterations 8
smoothSolver:  Solving for Uy, Initial residual = 0.468873, Final residual = 0.0362004, No Iterations 2
GAMG:  Solving for p, Initial residual = 0.0208139, Final residual = 0.00193244, No Iterations 3
time step continuity errors : sum local = 9.14669e-08, global = -2.79207e-19, cumulative = -6.06468e-18
smoothSolver:  Solving for omega, Initial residual = 0.000795325, Final residual = 3.30273e-05, No Iterations 3
smoothSolver:  Solving for k, Initial residual = 0.136532, Final residual = 0.0079255, No Iterations 3
ExecutionTime = 0.03 s  ClockTime = 6 s

Calculating grad(U).
Time = 19

smoothSolver:  Solving for Ux, Initial residual = 0.00720269, Final residual = 0.000633842, No Iterations 8
smoothSolver:  Solving for Uy, Initial residual = 0.442727, Final residual = 0.0343947, No Iterations 2
GAMG:  Solving for p, Initial residual = 0.0194313, Final residual = 0.00175218, No Iterations 3
time step continuity errors : sum local = 8.52915e-08, global = -5.31777e-19, cumulative = -6.59645e-18
smoothSolver:  Solving for omega, Initial residual = 0.000786491, Final residual = 1.98401e-05, No Iterations 3
smoothSolver:  Solving for k, Initial residual = 0.129313, Final residual = 0.00514728, No Iterations 3
ExecutionTime = 0.03 s  ClockTime = 6 s

Calculating grad(U).
Time = 20

smoothSolver:  Solving for Ux, Initial residual = 0.00716662, Final residual = 0.000630419, No Iterations 8
smoothSolver:  Solving for Uy, Initial residual = 0.42747, Final residual = 0.0332832, No Iterations 2
GAMG:  Solving for p, Initial residual = 0.0187679, Final residual = 0.00149469, No Iterations 3
time step continuity errors : sum local = 7.26597e-08, global = 6.96472e-20, cumulative = -6.5268e-18
smoothSolver:  Solving for omega, Initial residual = 0.000731161, Final residual = 1.63421e-05, No Iterations 3
smoothSolver:  Solving for k, Initial residual = 0.125906, Final residual = 0.0052358, No Iterations 3
ExecutionTime = 0.03 s  ClockTime = 6 s

Calculating grad(U).
Time = 21

smoothSolver:  Solving for Ux, Initial residual = 0.00712799, Final residual = 0.000626476, No Iterations 8
smoothSolver:  Solving for Uy, Initial residual = 0.38827, Final residual = 0.0308792, No Iterations 2
GAMG:  Solving for p, Initial residual = 0.0168232, Final residual = 0.00120204, No Iterations 3
time step continuity errors : sum local = 5.87913e-08, global = -1.57291e-19, cumulative = -6.6841e-18
smoothSolver:  Solving for omega, Initial residual = 0.000727741, Final residual = 2.85756e-05, No Iterations 3
smoothSolver:  Solving for k, Initial residual = 0.120032, Final residual = 0.00551225, No Iterations 3
ExecutionTime = 0.03 s  ClockTime = 6 s

Calculating grad(U).
Time = 22

smoothSolver:  Solving for Ux, Initial residual = 0.00708556, Final residual = 0.000621933, No Iterations 8
smoothSolver:  Solving for Uy, Initial residual = 0.357643, Final residual = 0.0292756, No Iterations 2
GAMG:  Solving for p, Initial residual = 0.0196515, Final residual = 0.00160736, No Iterations 2
time step continuity errors : sum local = 7.7066e-08, global = -3.92644e-19, cumulative = -7.07674e-18
smoothSolver:  Solving for omega, Initial residual = 0.000747766, Final residual = 1.88732e-05, No Iterations 3
smoothSolver:  Solving for k, Initial residual = 0.115785, Final residual = 0.00705768, No Iterations 3
ExecutionTime = 0.03 s  ClockTime = 6 s

Calculating grad(U).
Time = 23

smoothSolver:  Solving for Ux, Initial residual = 0.00703729, Final residual = 0.000616257, No Iterations 8
smoothSolver:  Solving for Uy, Initial residual = 0.383027, Final residual = 0.0305604, No Iterations 2
GAMG:  Solving for p, Initial residual = 0.0210139, Final residual = 0.00122495, No Iterations 2
time step continuity errors : sum local = 6.00349e-08, global = -1.33906e-19, cumulative = -7.21065e-18
smoothSolver:  Solving for omega, Initial residual = 0.000791451, Final residual = 6.99166e-05, No Iterations 2
smoothSolver:  Solving for k, Initial residual = 0.112301, Final residual = 0.00506406, No Iterations 3
ExecutionTime = 0.03 s  ClockTime = 6 s

Calculating grad(U).
Time = 24

smoothSolver:  Solving for Ux, Initial residual = 0.00697932, Final residual = 0.000609001, No Iterations 8
smoothSolver:  Solving for Uy, Initial residual = 0.330013, Final residual = 0.0278227, No Iterations 2
GAMG:  Solving for p, Initial residual = 0.0217487, Final residual = 0.00120759, No Iterations 2
time step continuity errors : sum local = 6.42802e-08, global = 2.13812e-19, cumulative = -6.99683e-18
smoothSolver:  Solving for omega, Initial residual = 0.000868953, Final residual = 2.79172e-05, No Iterations 3
smoothSolver:  Solving for k, Initial residual = 0.102433, Final residual = 0.00439811, No Iterations 3
ExecutionTime = 0.03 s  ClockTime = 6 s

Calculating grad(U).
Time = 25

smoothSolver:  Solving for Ux, Initial residual = 0.00691151, Final residual = 0.000600245, No Iterations 8
smoothSolver:  Solving for Uy, Initial residual = 0.364138, Final residual = 0.0277338, No Iterations 2
GAMG:  Solving for p, Initial residual = 0.0273163, Final residual = 0.00181112, No Iterations 2
time step continuity errors : sum local = 8.46862e-08, global = 2.38575e-20, cumulative = -6.97298e-18
smoothSolver:  Solving for omega, Initial residual = 0.00105189, Final residual = 2.21066e-05, No Iterations 3
smoothSolver:  Solving for k, Initial residual = 0.0941074, Final residual = 0.00393124, No Iterations 3
ExecutionTime = 0.03 s  ClockTime = 6 s

Calculating grad(U).
Time = 26

smoothSolver:  Solving for Ux, Initial residual = 0.00682758, Final residual = 0.000589014, No Iterations 8
smoothSolver:  Solving for Uy, Initial residual = 0.400945, Final residual = 0.0277401, No Iterations 2
GAMG:  Solving for p, Initial residual = 0.0319132, Final residual = 0.00220591, No Iterations 2
time step continuity errors : sum local = 1.14702e-07, global = -1.49249e-19, cumulative = -7.12222e-18
smoothSolver:  Solving for omega, Initial residual = 0.00114904, Final residual = 9.07756e-05, No Iterations 2
smoothSolver:  Solving for k, Initial residual = 0.0886705, Final residual = 0.00475785, No Iterations 3
ExecutionTime = 0.03 s  ClockTime = 6 s

Calculating grad(U).
Time = 27

smoothSolver:  Solving for Ux, Initial residual = 0.0067249, Final residual = 0.000575427, No Iterations 8
smoothSolver:  Solving for Uy, Initial residual = 0.357004, Final residual = 0.026754, No Iterations 2
GAMG:  Solving for p, Initial residual = 0.0307894, Final residual = 0.00270232, No Iterations 2
time step continuity errors : sum local = 1.35156e-07, global = -2.69175e-19, cumulative = -7.3914e-18
smoothSolver:  Solving for omega, Initial residual = 0.00124433, Final residual = 3.35224e-05, No Iterations 3
smoothSolver:  Solving for k, Initial residual = 0.0789299, Final residual = 0.00352089, No Iterations 3
ExecutionTime = 0.04 s  ClockTime = 6 s

Calculating grad(U).
Time = 28

smoothSolver:  Solving for Ux, Initial residual = 0.00661248, Final residual = 0.00056257, No Iterations 8
smoothSolver:  Solving for Uy, Initial residual = 0.429321, Final residual = 0.0264679, No Iterations 2
GAMG:  Solving for p, Initial residual = 0.0474173, Final residual = 0.00281364, No Iterations 2
time step continuity errors : sum local = 1.36602e-07, global = -3.23228e-19, cumulative = -7.71463e-18
smoothSolver:  Solving for omega, Initial residual = 0.00128093, Final residual = 2.66589e-05, No Iterations 3
smoothSolver:  Solving for k, Initial residual = 0.0709743, Final residual = 0.00332953, No Iterations 3
ExecutionTime = 0.04 s  ClockTime = 6 s

Calculating grad(U).
Time = 29

smoothSolver:  Solving for Ux, Initial residual = 0.00648667, Final residual = 0.000549178, No Iterations 8
smoothSolver:  Solving for Uy, Initial residual = 0.39529, Final residual = 0.0247115, No Iterations 2
GAMG:  Solving for p, Initial residual = 0.0476565, Final residual = 0.00333587, No Iterations 2
time step continuity errors : sum local = 1.48452e-07, global = -3.91455e-19, cumulative = -8.10608e-18
smoothSolver:  Solving for omega, Initial residual = 0.00121441, Final residual = 8.6548e-05, No Iterations 2
smoothSolver:  Solving for k, Initial residual = 0.066554, Final residual = 0.00421829, No Iterations 3
ExecutionTime = 0.04 s  ClockTime = 6 s

Calculating grad(U).
Time = 30

smoothSolver:  Solving for Ux, Initial residual = 0.00635946, Final residual = 0.000536066, No Iterations 8
smoothSolver:  Solving for Uy, Initial residual = 0.433306, Final residual = 0.0268466, No Iterations 2
GAMG:  Solving for p, Initial residual = 0.0501374, Final residual = 0.00325149, No Iterations 2
time step continuity errors : sum local = 1.55074e-07, global = 1.24653e-19, cumulative = -7.98143e-18
smoothSolver:  Solving for omega, Initial residual = 0.00100436, Final residual = 9.97405e-05, No Iterations 2
smoothSolver:  Solving for k, Initial residual = 0.0639515, Final residual = 0.00360342, No Iterations 3
ExecutionTime = 0.04 s  ClockTime = 6 s

Calculating grad(U).
Time = 31

smoothSolver:  Solving for Ux, Initial residual = 0.00623076, Final residual = 0.000522466, No Iterations 8
smoothSolver:  Solving for Uy, Initial residual = 0.582725, Final residual = 0.02974, No Iterations 2
GAMG:  Solving for p, Initial residual = 0.0552293, Final residual = 0.00351088, No Iterations 2
time step continuity errors : sum local = 1.55923e-07, global = 1.03382e-19, cumulative = -7.87805e-18
smoothSolver:  Solving for omega, Initial residual = 0.000932388, Final residual = 2.03988e-05, No Iterations 3
smoothSolver:  Solving for k, Initial residual = 0.0645622, Final residual = 0.00378312, No Iterations 3
ExecutionTime = 0.04 s  ClockTime = 6 s

Calculating grad(U).
Time = 32

smoothSolver:  Solving for Ux, Initial residual = 0.00607911, Final residual = 0.000508397, No Iterations 8
smoothSolver:  Solving for Uy, Initial residual = 0.58079, Final residual = 0.0327051, No Iterations 2
GAMG:  Solving for p, Initial residual = 0.0613729, Final residual = 0.00529647, No Iterations 2
time step continuity errors : sum local = 2.28439e-07, global = -1.03148e-18, cumulative = -8.90952e-18
smoothSolver:  Solving for omega, Initial residual = 0.000876499, Final residual = 7.16472e-05, No Iterations 2
smoothSolver:  Solving for k, Initial residual = 0.0670078, Final residual = 0.00389208, No Iterations 3
ExecutionTime = 0.04 s  ClockTime = 6 s

Calculating grad(U).
Time = 33

smoothSolver:  Solving for Ux, Initial residual = 0.00594621, Final residual = 0.00049505, No Iterations 8
smoothSolver:  Solving for Uy, Initial residual = 0.58113, Final residual = 0.0294542, No Iterations 2
GAMG:  Solving for p, Initial residual = 0.0692391, Final residual = 0.00686687, No Iterations 2
time step continuity errors : sum local = 2.83089e-07, global = -7.43665e-19, cumulative = -9.65319e-18
smoothSolver:  Solving for omega, Initial residual = 0.000872412, Final residual = 2.55547e-05, No Iterations 3
smoothSolver:  Solving for k, Initial residual = 0.0727819, Final residual = 0.00501902, No Iterations 3
ExecutionTime = 0.04 s  ClockTime = 6 s

Calculating grad(U).
Time = 34

smoothSolver:  Solving for Ux, Initial residual = 0.00582027, Final residual = 0.000480396, No Iterations 8
smoothSolver:  Solving for Uy, Initial residual = 0.618899, Final residual = 0.0350208, No Iterations 2
GAMG:  Solving for p, Initial residual = 0.0671947, Final residual = 0.00378452, No Iterations 2
time step continuity errors : sum local = 1.39068e-07, global = -9.19635e-19, cumulative = -1.05728e-17
smoothSolver:  Solving for omega, Initial residual = 0.000813537, Final residual = 1.87574e-05, No Iterations 3
smoothSolver:  Solving for k, Initial residual = 0.0731018, Final residual = 0.00511519, No Iterations 3
ExecutionTime = 0.04 s  ClockTime = 6 s

Calculating grad(U).
Time = 35

smoothSolver:  Solving for Ux, Initial residual = 0.00568399, Final residual = 0.000465803, No Iterations 8
smoothSolver:  Solving for Uy, Initial residual = 0.616562, Final residual = 0.0393754, No Iterations 2
GAMG:  Solving for p, Initial residual = 0.0755103, Final residual = 0.00589568, No Iterations 2
time step continuity errors : sum local = 2.27615e-07, global = -2.26675e-19, cumulative = -1.07995e-17
smoothSolver:  Solving for omega, Initial residual = 0.00076709, Final residual = 6.53789e-05, No Iterations 2
smoothSolver:  Solving for k, Initial residual = 0.0755339, Final residual = 0.00518202, No Iterations 3
ExecutionTime = 0.04 s  ClockTime = 6 s

Calculating grad(U).
Time = 36

smoothSolver:  Solving for Ux, Initial residual = 0.00557368, Final residual = 0.000452039, No Iterations 8
smoothSolver:  Solving for Uy, Initial residual = 0.619487, Final residual = 0.0282744, No Iterations 2
GAMG:  Solving for p, Initial residual = 0.0930878, Final residual = 0.00787864, No Iterations 2
time step continuity errors : sum local = 3.01891e-07, global = 4.01358e-19, cumulative = -1.03981e-17
smoothSolver:  Solving for omega, Initial residual = 0.000751597, Final residual = 2.66604e-05, No Iterations 3
smoothSolver:  Solving for k, Initial residual = 0.0791313, Final residual = 0.00545651, No Iterations 3
ExecutionTime = 0.05 s  ClockTime = 6 s

Calculating grad(U).
Time = 37

smoothSolver:  Solving for Ux, Initial residual = 0.0055591, Final residual = 0.000436676, No Iterations 8
smoothSolver:  Solving for Uy, Initial residual = 0.692577, Final residual = 0.0349909, No Iterations 2
GAMG:  Solving for p, Initial residual = 0.0975714, Final residual = 0.00485136, No Iterations 2
time step continuity errors : sum local = 1.68345e-07, global = -4.15974e-19, cumulative = -1.08141e-17
smoothSolver:  Solving for omega, Initial residual = 0.000788337, Final residual = 2.2883e-05, No Iterations 3
smoothSolver:  Solving for k, Initial residual = 0.0775935, Final residual = 0.00570357, No Iterations 3
ExecutionTime = 0.05 s  ClockTime = 6 s

Calculating grad(U).
Time = 38

smoothSolver:  Solving for Ux, Initial residual = 0.00575597, Final residual = 0.000431454, No Iterations 8
smoothSolver:  Solving for Uy, Initial residual = 0.689681, Final residual = 0.0398386, No Iterations 2
GAMG:  Solving for p, Initial residual = 0.118228, Final residual = 0.00592454, No Iterations 2
time step continuity errors : sum local = 2.1579e-07, global = -7.44382e-19, cumulative = -1.15585e-17
smoothSolver:  Solving for omega, Initial residual = 0.000831276, Final residual = 3.29192e-05, No Iterations 3
smoothSolver:  Solving for k, Initial residual = 0.0774074, Final residual = 0.0065056, No Iterations 3
ExecutionTime = 0.05 s  ClockTime = 6 s

Calculating grad(U).
Time = 39

smoothSolver:  Solving for Ux, Initial residual = 0.0061796, Final residual = 0.00045816, No Iterations 8
smoothSolver:  Solving for Uy, Initial residual = 0.606261, Final residual = 0.0282041, No Iterations 2
GAMG:  Solving for p, Initial residual = 0.125454, Final residual = 0.00872866, No Iterations 2
time step continuity errors : sum local = 3.07218e-07, global = -5.47546e-19, cumulative = -1.2106e-17
smoothSolver:  Solving for omega, Initial residual = 0.000926129, Final residual = 3.97649e-05, No Iterations 3
smoothSolver:  Solving for k, Initial residual = 0.0772927, Final residual = 0.00587718, No Iterations 3
ExecutionTime = 0.05 s  ClockTime = 6 s

Calculating grad(U).
Time = 40

smoothSolver:  Solving for Ux, Initial residual = 0.00674165, Final residual = 0.000484852, No Iterations 8
smoothSolver:  Solving for Uy, Initial residual = 0.622102, Final residual = 0.0292567, No Iterations 2
GAMG:  Solving for p, Initial residual = 0.122882, Final residual = 0.00679657, No Iterations 2
time step continuity errors : sum local = 2.26187e-07, global = -3.85899e-19, cumulative = -1.24919e-17
smoothSolver:  Solving for omega, Initial residual = 0.00103783, Final residual = 3.69385e-05, No Iterations 3
smoothSolver:  Solving for k, Initial residual = 0.076689, Final residual = 0.00564425, No Iterations 3
ExecutionTime = 0.05 s  ClockTime = 6 s

Calculating grad(U).
Time = 41

smoothSolver:  Solving for Ux, Initial residual = 0.00740343, Final residual = 0.00072684, No Iterations 7
smoothSolver:  Solving for Uy, Initial residual = 0.717477, Final residual = 0.0409519, No Iterations 2
GAMG:  Solving for p, Initial residual = 0.140823, Final residual = 0.00689572, No Iterations 2
time step continuity errors : sum local = 2.49114e-07, global = -4.33928e-19, cumulative = -1.29259e-17
smoothSolver:  Solving for omega, Initial residual = 0.00110935, Final residual = 4.96953e-05, No Iterations 3
smoothSolver:  Solving for k, Initial residual = 0.079545, Final residual = 0.00359076, No Iterations 4
ExecutionTime = 0.05 s  ClockTime = 6 s

Calculating grad(U).
Time = 42

smoothSolver:  Solving for Ux, Initial residual = 0.00840949, Final residual = 0.000814693, No Iterations 7
smoothSolver:  Solving for Uy, Initial residual = 0.6459, Final residual = 0.0293124, No Iterations 2
GAMG:  Solving for p, Initial residual = 0.143136, Final residual = 0.00831605, No Iterations 2
time step continuity errors : sum local = 2.81537e-07, global = -1.47186e-19, cumulative = -1.30731e-17
smoothSolver:  Solving for omega, Initial residual = 0.00122162, Final residual = 5.62476e-05, No Iterations 3
smoothSolver:  Solving for k, Initial residual = 0.0706147, Final residual = 0.00537428, No Iterations 3
ExecutionTime = 0.05 s  ClockTime = 6 s

Calculating grad(U).
Time = 43

smoothSolver:  Solving for Ux, Initial residual = 0.00927103, Final residual = 0.000883989, No Iterations 7
smoothSolver:  Solving for Uy, Initial residual = 0.540747, Final residual = 0.0264477, No Iterations 2
GAMG:  Solving for p, Initial residual = 0.156914, Final residual = 0.00800797, No Iterations 2
time step continuity errors : sum local = 2.72785e-07, global = -1.07388e-19, cumulative = -1.31804e-17
smoothSolver:  Solving for omega, Initial residual = 0.00128745, Final residual = 4.99572e-05, No Iterations 3
smoothSolver:  Solving for k, Initial residual = 0.0685003, Final residual = 0.0055806, No Iterations 3
ExecutionTime = 0.05 s  ClockTime = 6 s

Calculating grad(U).
Time = 44

smoothSolver:  Solving for Ux, Initial residual = 0.0100671, Final residual = 0.000938744, No Iterations 7
smoothSolver:  Solving for Uy, Initial residual = 0.572314, Final residual = 0.0334661, No Iterations 2
GAMG:  Solving for p, Initial residual = 0.146798, Final residual = 0.00690268, No Iterations 2
time step continuity errors : sum local = 2.47672e-07, global = -5.11873e-19, cumulative = -1.36923e-17
smoothSolver:  Solving for omega, Initial residual = 0.00143478, Final residual = 7.6285e-05, No Iterations 3
smoothSolver:  Solving for k, Initial residual = 0.0727804, Final residual = 0.00650075, No Iterations 3
ExecutionTime = 0.06 s  ClockTime = 6 s

Calculating grad(U).
Time = 45

smoothSolver:  Solving for Ux, Initial residual = 0.0107467, Final residual = 0.000982973, No Iterations 7
smoothSolver:  Solving for Uy, Initial residual = 0.449054, Final residual = 0.0217966, No Iterations 2
GAMG:  Solving for p, Initial residual = 0.148145, Final residual = 0.00822174, No Iterations 2
time step continuity errors : sum local = 2.92115e-07, global = -8.9147e-19, cumulative = -1.45838e-17
smoothSolver:  Solving for omega, Initial residual = 0.00157148, Final residual = 6.6962e-05, No Iterations 3
smoothSolver:  Solving for k, Initial residual = 0.0690421, Final residual = 0.00618523, No Iterations 3
ExecutionTime = 0.06 s  ClockTime = 6 s

Calculating grad(U).
Time = 46

smoothSolver:  Solving for Ux, Initial residual = 0.0112662, Final residual = 0.00100241, No Iterations 7
smoothSolver:  Solving for Uy, Initial residual = 0.558058, Final residual = 0.0321896, No Iterations 2
GAMG:  Solving for p, Initial residual = 0.148823, Final residual = 0.00862739, No Iterations 2
time step continuity errors : sum local = 3.42577e-07, global = -5.80921e-19, cumulative = -1.51647e-17
smoothSolver:  Solving for omega, Initial residual = 0.0016487, Final residual = 5.87016e-05, No Iterations 3
smoothSolver:  Solving for k, Initial residual = 0.067315, Final residual = 0.0064883, No Iterations 3
ExecutionTime = 0.06 s  ClockTime = 6 s

Calculating grad(U).
Time = 47

smoothSolver:  Solving for Ux, Initial residual = 0.0120015, Final residual = 0.00107455, No Iterations 7
smoothSolver:  Solving for Uy, Initial residual = 0.505647, Final residual = 0.0254562, No Iterations 2
GAMG:  Solving for p, Initial residual = 0.123011, Final residual = 0.00594279, No Iterations 2
time step continuity errors : sum local = 2.53951e-07, global = -2.69377e-20, cumulative = -1.51916e-17
smoothSolver:  Solving for omega, Initial residual = 0.00166804, Final residual = 8.07743e-05, No Iterations 3
smoothSolver:  Solving for k, Initial residual = 0.0676649, Final residual = 0.0035193, No Iterations 4
ExecutionTime = 0.06 s  ClockTime = 6 s

Calculating grad(U).
Time = 48

smoothSolver:  Solving for Ux, Initial residual = 0.0127141, Final residual = 0.00114512, No Iterations 7
smoothSolver:  Solving for Uy, Initial residual = 0.469326, Final residual = 0.0229885, No Iterations 2
GAMG:  Solving for p, Initial residual = 0.103649, Final residual = 0.0048783, No Iterations 2
time step continuity errors : sum local = 2.12661e-07, global = -6.86384e-19, cumulative = -1.5878e-17
smoothSolver:  Solving for omega, Initial residual = 0.0016952, Final residual = 6.60674e-05, No Iterations 3
smoothSolver:  Solving for k, Initial residual = 0.059353, Final residual = 0.00449427, No Iterations 3
ExecutionTime = 0.06 s  ClockTime = 6 s

Calculating grad(U).
Time = 49

smoothSolver:  Solving for Ux, Initial residual = 0.013129, Final residual = 0.00118089, No Iterations 7
smoothSolver:  Solving for Uy, Initial residual = 0.588666, Final residual = 0.0328336, No Iterations 2
GAMG:  Solving for p, Initial residual = 0.144003, Final residual = 0.0069175, No Iterations 2
time step continuity errors : sum local = 2.9179e-07, global = -6.48904e-19, cumulative = -1.65269e-17
smoothSolver:  Solving for omega, Initial residual = 0.00158956, Final residual = 5.63339e-05, No Iterations 3
smoothSolver:  Solving for k, Initial residual = 0.0611532, Final residual = 0.00605979, No Iterations 3
ExecutionTime = 0.06 s  ClockTime = 6 s

Calculating grad(U).
Time = 50

smoothSolver:  Solving for Ux, Initial residual = 0.0136389, Final residual = 0.00122838, No Iterations 7
smoothSolver:  Solving for Uy, Initial residual = 0.515177, Final residual = 0.0305632, No Iterations 2
GAMG:  Solving for p, Initial residual = 0.105714, Final residual = 0.00592472, No Iterations 2
time step continuity errors : sum local = 2.70855e-07, global = 4.64364e-19, cumulative = -1.60626e-17
smoothSolver:  Solving for omega, Initial residual = 0.00165085, Final residual = 7.95424e-05, No Iterations 3
smoothSolver:  Solving for k, Initial residual = 0.0624063, Final residual = 0.00306659, No Iterations 4
ExecutionTime = 0.06 s  ClockTime = 6 s

Calculating grad(U).
Time = 51

smoothSolver:  Solving for Ux, Initial residual = 0.0139453, Final residual = 0.00127765, No Iterations 7
smoothSolver:  Solving for Uy, Initial residual = 0.466657, Final residual = 0.0228198, No Iterations 2
GAMG:  Solving for p, Initial residual = 0.0744498, Final residual = 0.00380796, No Iterations 2
time step continuity errors : sum local = 1.8686e-07, global = 3.81412e-19, cumulative = -1.56812e-17
smoothSolver:  Solving for omega, Initial residual = 0.0016745, Final residual = 7.16558e-05, No Iterations 3
smoothSolver:  Solving for k, Initial residual = 0.0586471, Final residual = 0.00473262, No Iterations 3
ExecutionTime = 0.06 s  ClockTime = 6 s

Calculating grad(U).
Time = 52

smoothSolver:  Solving for Ux, Initial residual = 0.0143737, Final residual = 0.0013203, No Iterations 7
smoothSolver:  Solving for Uy, Initial residual = 0.599634, Final residual = 0.0350015, No Iterations 2
GAMG:  Solving for p, Initial residual = 0.103895, Final residual = 0.0055744, No Iterations 2
time step continuity errors : sum local = 2.87988e-07, global = -2.81702e-19, cumulative = -1.59629e-17
smoothSolver:  Solving for omega, Initial residual = 0.0014695, Final residual = 4.80838e-05, No Iterations 3
smoothSolver:  Solving for k, Initial residual = 0.0603847, Final residual = 0.00547627, No Iterations 3
ExecutionTime = 0.06 s  ClockTime = 6 s

Calculating grad(U).
Time = 53

smoothSolver:  Solving for Ux, Initial residual = 0.0148661, Final residual = 0.00135996, No Iterations 7
smoothSolver:  Solving for Uy, Initial residual = 0.572949, Final residual = 0.0376068, No Iterations 2
GAMG:  Solving for p, Initial residual = 0.0900294, Final residual = 0.00484639, No Iterations 2
time step continuity errors : sum local = 2.5899e-07, global = 2.4659e-20, cumulative = -1.59382e-17
smoothSolver:  Solving for omega, Initial residual = 0.00134946, Final residual = 6.37956e-05, No Iterations 3
smoothSolver:  Solving for k, Initial residual = 0.0568748, Final residual = 0.00306079, No Iterations 4
ExecutionTime = 0.07 s  ClockTime = 6 s

Calculating grad(U).
Time = 54

smoothSolver:  Solving for Ux, Initial residual = 0.0153617, Final residual = 0.00138981, No Iterations 7
smoothSolver:  Solving for Uy, Initial residual = 0.480925, Final residual = 0.0337327, No Iterations 2
GAMG:  Solving for p, Initial residual = 0.0685184, Final residual = 0.00395167, No Iterations 2
time step continuity errors : sum local = 2.35563e-07, global = 3.50387e-19, cumulative = -1.55878e-17
smoothSolver:  Solving for omega, Initial residual = 0.00140522, Final residual = 8.19352e-05, No Iterations 3
smoothSolver:  Solving for k, Initial residual = 0.0523653, Final residual = 0.00273158, No Iterations 4
ExecutionTime = 0.07 s  ClockTime = 6 s

Calculating grad(U).
Time = 55

smoothSolver:  Solving for Ux, Initial residual = 0.0155384, Final residual = 0.00138813, No Iterations 7
smoothSolver:  Solving for Uy, Initial residual = 0.368681, Final residual = 0.0246856, No Iterations 2
GAMG:  Solving for p, Initial residual = 0.0682515, Final residual = 0.00293152, No Iterations 2
time step continuity errors : sum local = 1.77562e-07, global = -1.03087e-18, cumulative = -1.66187e-17
smoothSolver:  Solving for omega, Initial residual = 0.00144523, Final residual = 7.21328e-05, No Iterations 3
smoothSolver:  Solving for k, Initial residual = 0.0444509, Final residual = 0.00410359, No Iterations 3
ExecutionTime = 0.07 s  ClockTime = 6 s

Calculating grad(U).
Time = 56

smoothSolver:  Solving for Ux, Initial residual = 0.0152761, Final residual = 0.0013758, No Iterations 7
smoothSolver:  Solving for Uy, Initial residual = 0.531254, Final residual = 0.0376186, No Iterations 2
GAMG:  Solving for p, Initial residual = 0.07725, Final residual = 0.00472673, No Iterations 2
time step continuity errors : sum local = 2.93097e-07, global = -2.49449e-19, cumulative = -1.68681e-17
smoothSolver:  Solving for omega, Initial residual = 0.00146628, Final residual = 9.37607e-05, No Iterations 3
smoothSolver:  Solving for k, Initial residual = 0.0432406, Final residual = 0.00384435, No Iterations 3
ExecutionTime = 0.07 s  ClockTime = 6 s

Calculating grad(U).
Time = 57

smoothSolver:  Solving for Ux, Initial residual = 0.014833, Final residual = 0.00136772, No Iterations 7
smoothSolver:  Solving for Uy, Initial residual = 0.323009, Final residual = 0.0249146, No Iterations 2
GAMG:  Solving for p, Initial residual = 0.0492784, Final residual = 0.00370508, No Iterations 2
time step continuity errors : sum local = 2.48393e-07, global = 1.56327e-19, cumulative = -1.67118e-17
smoothSolver:  Solving for omega, Initial residual = 0.00146716, Final residual = 0.000107617, No Iterations 3
smoothSolver:  Solving for k, Initial residual = 0.0431438, Final residual = 0.0036968, No Iterations 3
ExecutionTime = 0.07 s  ClockTime = 6 s

Calculating grad(U).
Time = 58

smoothSolver:  Solving for Ux, Initial residual = 0.0145639, Final residual = 0.00134298, No Iterations 7
smoothSolver:  Solving for Uy, Initial residual = 0.320674, Final residual = 0.0203012, No Iterations 2
GAMG:  Solving for p, Initial residual = 0.0395628, Final residual = 0.00299424, No Iterations 2
time step continuity errors : sum local = 1.92685e-07, global = -1.14696e-19, cumulative = -1.68265e-17
smoothSolver:  Solving for omega, Initial residual = 0.00137028, Final residual = 7.12755e-05, No Iterations 3
smoothSolver:  Solving for k, Initial residual = 0.043676, Final residual = 0.00254616, No Iterations 4
ExecutionTime = 0.07 s  ClockTime = 6 s

Calculating grad(U).
Time = 59

smoothSolver:  Solving for Ux, Initial residual = 0.0145438, Final residual = 0.00133232, No Iterations 7
smoothSolver:  Solving for Uy, Initial residual = 0.373585, Final residual = 0.0264389, No Iterations 2
GAMG:  Solving for p, Initial residual = 0.038445, Final residual = 0.00289011, No Iterations 2
time step continuity errors : sum local = 1.93313e-07, global = -2.4935e-19, cumulative = -1.70758e-17
smoothSolver:  Solving for omega, Initial residual = 0.00130117, Final residual = 7.13393e-05, No Iterations 3
smoothSolver:  Solving for k, Initial residual = 0.0337876, Final residual = 0.00337586, No Iterations 3
ExecutionTime = 0.07 s  ClockTime = 6 s

Calculating grad(U).
Time = 60

smoothSolver:  Solving for Ux, Initial residual = 0.0144788, Final residual = 0.00131893, No Iterations 7
smoothSolver:  Solving for Uy, Initial residual = 0.311951, Final residual = 0.0148512, No Iterations 2
GAMG:  Solving for p, Initial residual = 0.0349916, Final residual = 0.00257634, No Iterations 2
time step continuity errors : sum local = 1.67733e-07, global = -1.19296e-18, cumulative = -1.82688e-17
smoothSolver:  Solving for omega, Initial residual = 0.00127046, Final residual = 9.32354e-05, No Iterations 3
smoothSolver:  Solving for k, Initial residual = 0.0320776, Final residual = 0.0028479, No Iterations 3
ExecutionTime = 0.07 s  ClockTime = 6 s

Calculating grad(U).
Time = 61

smoothSolver:  Solving for Ux, Initial residual = 0.0144592, Final residual = 0.00129986, No Iterations 7
smoothSolver:  Solving for Uy, Initial residual = 0.30257, Final residual = 0.0101257, No Iterations 2
GAMG:  Solving for p, Initial residual = 0.0364756, Final residual = 0.00326628, No Iterations 2
time step continuity errors : sum local = 2.10491e-07, global = -8.35969e-19, cumulative = -1.91048e-17
smoothSolver:  Solving for omega, Initial residual = 0.00116875, Final residual = 7.00322e-05, No Iterations 3
smoothSolver:  Solving for k, Initial residual = 0.0304794, Final residual = 0.00163825, No Iterations 4
ExecutionTime = 0.07 s  ClockTime = 6 s

Calculating grad(U).
Time = 62

smoothSolver:  Solving for Ux, Initial residual = 0.0144264, Final residual = 0.00128593, No Iterations 7
smoothSolver:  Solving for Uy, Initial residual = 0.257378, Final residual = 0.0138962, No Iterations 2
GAMG:  Solving for p, Initial residual = 0.0256988, Final residual = 0.00256172, No Iterations 2
time step continuity errors : sum local = 1.66768e-07, global = -8.86781e-19, cumulative = -1.99916e-17
smoothSolver:  Solving for omega, Initial residual = 0.00111501, Final residual = 6.74843e-05, No Iterations 3
smoothSolver:  Solving for k, Initial residual = 0.0254961, Final residual = 0.00141946, No Iterations 4
ExecutionTime = 0.08 s  ClockTime = 6 s

Calculating grad(U).
Time = 63

smoothSolver:  Solving for Ux, Initial residual = 0.0143104, Final residual = 0.0012721, No Iterations 7
smoothSolver:  Solving for Uy, Initial residual = 0.382041, Final residual = 0.0180923, No Iterations 2
GAMG:  Solving for p, Initial residual = 0.0258071, Final residual = 0.00194132, No Iterations 2
time step continuity errors : sum local = 1.32461e-07, global = -7.64807e-19, cumulative = -2.07564e-17
smoothSolver:  Solving for omega, Initial residual = 0.00107646, Final residual = 8.05911e-05, No Iterations 3
smoothSolver:  Solving for k, Initial residual = 0.0236833, Final residual = 0.00119033, No Iterations 4
ExecutionTime = 0.08 s  ClockTime = 6 s

Calculating grad(U).
Time = 64

smoothSolver:  Solving for Ux, Initial residual = 0.0141909, Final residual = 0.00125103, No Iterations 7
smoothSolver:  Solving for Uy, Initial residual = 0.359765, Final residual = 0.0154465, No Iterations 2
GAMG:  Solving for p, Initial residual = 0.0294832, Final residual = 0.00224042, No Iterations 2
time step continuity errors : sum local = 1.32942e-07, global = -9.21295e-19, cumulative = -2.16777e-17
smoothSolver:  Solving for omega, Initial residual = 0.00104859, Final residual = 7.3217e-05, No Iterations 3
smoothSolver:  Solving for k, Initial residual = 0.0213813, Final residual = 0.00201966, No Iterations 3
ExecutionTime = 0.08 s  ClockTime = 6 s

Calculating grad(U).
Time = 65

smoothSolver:  Solving for Ux, Initial residual = 0.0141018, Final residual = 0.00123252, No Iterations 7
smoothSolver:  Solving for Uy, Initial residual = 0.277041, Final residual = 0.0122608, No Iterations 2
GAMG:  Solving for p, Initial residual = 0.0270817, Final residual = 0.00258974, No Iterations 2
time step continuity errors : sum local = 1.56272e-07, global = 5.05242e-20, cumulative = -2.16271e-17
smoothSolver:  Solving for omega, Initial residual = 0.00102805, Final residual = 8.82881e-05, No Iterations 3
smoothSolver:  Solving for k, Initial residual = 0.0219705, Final residual = 0.00108328, No Iterations 4
ExecutionTime = 0.08 s  ClockTime = 6 s

Calculating grad(U).
Time = 66

smoothSolver:  Solving for Ux, Initial residual = 0.013938, Final residual = 0.00121464, No Iterations 7
smoothSolver:  Solving for Uy, Initial residual = 0.357333, Final residual = 0.0191402, No Iterations 2
GAMG:  Solving for p, Initial residual = 0.0234546, Final residual = 0.00210346, No Iterations 2
time step continuity errors : sum local = 1.21688e-07, global = -1.52591e-19, cumulative = -2.17797e-17
smoothSolver:  Solving for omega, Initial residual = 0.00098583, Final residual = 9.13159e-05, No Iterations 3
smoothSolver:  Solving for k, Initial residual = 0.0195147, Final residual = 0.00102053, No Iterations 4
ExecutionTime = 0.08 s  ClockTime = 6 s

Calculating grad(U).
Time = 67

smoothSolver:  Solving for Ux, Initial residual = 0.0137543, Final residual = 0.00119395, No Iterations 7
smoothSolver:  Solving for Uy, Initial residual = 0.324158, Final residual = 0.0173177, No Iterations 2
GAMG:  Solving for p, Initial residual = 0.0269663, Final residual = 0.00265135, No Iterations 2
time step continuity errors : sum local = 1.44909e-07, global = 3.52134e-20, cumulative = -2.17445e-17
smoothSolver:  Solving for omega, Initial residual = 0.000947074, Final residual = 7.39205e-05, No Iterations 3
smoothSolver:  Solving for k, Initial residual = 0.0180346, Final residual = 0.00178579, No Iterations 3
ExecutionTime = 0.08 s  ClockTime = 6 s

Calculating grad(U).
Time = 68

smoothSolver:  Solving for Ux, Initial residual = 0.0135879, Final residual = 0.0011724, No Iterations 7
smoothSolver:  Solving for Uy, Initial residual = 0.312462, Final residual = 0.0148776, No Iterations 2
GAMG:  Solving for p, Initial residual = 0.0237417, Final residual = 0.00220156, No Iterations 3
time step continuity errors : sum local = 1.16882e-07, global = -8.93079e-19, cumulative = -2.26376e-17
smoothSolver:  Solving for omega, Initial residual = 0.000955935, Final residual = 4.71279e-05, No Iterations 4
smoothSolver:  Solving for k, Initial residual = 0.0160493, Final residual = 0.000767084, No Iterations 4
ExecutionTime = 0.08 s  ClockTime = 6 s

Calculating grad(U).
Time = 69

smoothSolver:  Solving for Ux, Initial residual = 0.0134207, Final residual = 0.00115316, No Iterations 7
smoothSolver:  Solving for Uy, Initial residual = 0.341962, Final residual = 0.0183493, No Iterations 2
GAMG:  Solving for p, Initial residual = 0.0209353, Final residual = 0.000975738, No Iterations 4
time step continuity errors : sum local = 5.15191e-08, global = 2.04523e-19, cumulative = -2.24331e-17
smoothSolver:  Solving for omega, Initial residual = 0.000859446, Final residual = 7.35893e-05, No Iterations 3
smoothSolver:  Solving for k, Initial residual = 0.0165788, Final residual = 0.000853304, No Iterations 4
ExecutionTime = 0.08 s  ClockTime = 6 s

Calculating grad(U).
Time = 70

smoothSolver:  Solving for Ux, Initial residual = 0.0132268, Final residual = 0.00112962, No Iterations 7
smoothSolver:  Solving for Uy, Initial residual = 0.327722, Final residual = 0.0188116, No Iterations 2
GAMG:  Solving for p, Initial residual = 0.0215398, Final residual = 0.00126114, No Iterations 4
time step continuity errors : sum local = 6.49293e-08, global = -3.93891e-19, cumulative = -2.2827e-17
smoothSolver:  Solving for omega, Initial residual = 0.000864056, Final residual = 7.3581e-05, No Iterations 3
smoothSolver:  Solving for k, Initial residual = 0.0155731, Final residual = 0.00150246, No Iterations 3
ExecutionTime = 0.08 s  ClockTime = 6 s

Calculating grad(U).
Time = 71

smoothSolver:  Solving for Ux, Initial residual = 0.013011, Final residual = 0.00110617, No Iterations 7
smoothSolver:  Solving for Uy, Initial residual = 0.27566, Final residual = 0.013574, No Iterations 2
GAMG:  Solving for p, Initial residual = 0.0217977, Final residual = 0.00192035, No Iterations 3
time step continuity errors : sum local = 9.57448e-08, global = -5.30642e-19, cumulative = -2.33576e-17
smoothSolver:  Solving for omega, Initial residual = 0.000868166, Final residual = 4.96268e-05, No Iterations 4
smoothSolver:  Solving for k, Initial residual = 0.0149015, Final residual = 0.000810968, No Iterations 4
ExecutionTime = 0.08 s  ClockTime = 6 s

Calculating grad(U).
Time = 72

smoothSolver:  Solving for Ux, Initial residual = 0.0127494, Final residual = 0.00108367, No Iterations 7
smoothSolver:  Solving for Uy, Initial residual = 0.361795, Final residual = 0.0186097, No Iterations 2
GAMG:  Solving for p, Initial residual = 0.0216648, Final residual = 0.00197712, No Iterations 2
time step continuity errors : sum local = 9.91867e-08, global = -5.09547e-19, cumulative = -2.38671e-17
smoothSolver:  Solving for omega, Initial residual = 0.000783117, Final residual = 7.04392e-05, No Iterations 3
smoothSolver:  Solving for k, Initial residual = 0.0158377, Final residual = 0.000984137, No Iterations 4
ExecutionTime = 0.08 s  ClockTime = 6 s

Calculating grad(U).
Time = 73

smoothSolver:  Solving for Ux, Initial residual = 0.0125185, Final residual = 0.00105717, No Iterations 7
smoothSolver:  Solving for Uy, Initial residual = 0.3833, Final residual = 0.0212316, No Iterations 2
GAMG:  Solving for p, Initial residual = 0.0240726, Final residual = 0.00209717, No Iterations 2
time step continuity errors : sum local = 1.03123e-07, global = -4.31207e-19, cumulative = -2.42984e-17
smoothSolver:  Solving for omega, Initial residual = 0.000749067, Final residual = 6.35659e-05, No Iterations 3
smoothSolver:  Solving for k, Initial residual = 0.0153125, Final residual = 0.000771381, No Iterations 4
ExecutionTime = 0.08 s  ClockTime = 6 s

Calculating grad(U).
Time = 74

smoothSolver:  Solving for Ux, Initial residual = 0.0122342, Final residual = 0.00102888, No Iterations 7
smoothSolver:  Solving for Uy, Initial residual = 0.326733, Final residual = 0.0170231, No Iterations 2
GAMG:  Solving for p, Initial residual = 0.0224098, Final residual = 0.00164428, No Iterations 4
time step continuity errors : sum local = 7.65035e-08, global = -3.42537e-19, cumulative = -2.46409e-17
smoothSolver:  Solving for omega, Initial residual = 0.000767236, Final residual = 3.95069e-05, No Iterations 4
smoothSolver:  Solving for k, Initial residual = 0.0156554, Final residual = 0.000897868, No Iterations 4
ExecutionTime = 0.08 s  ClockTime = 6 s

Calculating grad(U).
Time = 75

smoothSolver:  Solving for Ux, Initial residual = 0.0118773, Final residual = 0.00100159, No Iterations 7
smoothSolver:  Solving for Uy, Initial residual = 0.353395, Final residual = 0.0181263, No Iterations 2
GAMG:  Solving for p, Initial residual = 0.0231766, Final residual = 0.00219721, No Iterations 2
time step continuity errors : sum local = 9.40331e-08, global = -5.52622e-19, cumulative = -2.51935e-17
smoothSolver:  Solving for omega, Initial residual = 0.000692994, Final residual = 6.47883e-05, No Iterations 3
smoothSolver:  Solving for k, Initial residual = 0.0168215, Final residual = 0.00130069, No Iterations 4
ExecutionTime = 0.09 s  ClockTime = 6 s

Calculating grad(U).
Time = 76

smoothSolver:  Solving for Ux, Initial residual = 0.0115049, Final residual = 0.000969958, No Iterations 7
smoothSolver:  Solving for Uy, Initial residual = 0.386007, Final residual = 0.0196603, No Iterations 2
GAMG:  Solving for p, Initial residual = 0.0281134, Final residual = 0.00178172, No Iterations 2
time step continuity errors : sum local = 7.54051e-08, global = -6.18515e-19, cumulative = -2.5812e-17
smoothSolver:  Solving for omega, Initial residual = 0.000675873, Final residual = 3.75578e-05, No Iterations 4
smoothSolver:  Solving for k, Initial residual = 0.0162155, Final residual = 0.00103982, No Iterations 4
ExecutionTime = 0.09 s  ClockTime = 6 s

Calculating grad(U).
Time = 77

smoothSolver:  Solving for Ux, Initial residual = 0.0111715, Final residual = 0.000941505, No Iterations 7
smoothSolver:  Solving for Uy, Initial residual = 0.371518, Final residual = 0.0186743, No Iterations 2
GAMG:  Solving for p, Initial residual = 0.0269483, Final residual = 0.00242413, No Iterations 2
time step continuity errors : sum local = 1.07941e-07, global = -2.07858e-19, cumulative = -2.60199e-17
smoothSolver:  Solving for omega, Initial residual = 0.000619025, Final residual = 5.36867e-05, No Iterations 3
smoothSolver:  Solving for k, Initial residual = 0.0170665, Final residual = 0.00129867, No Iterations 4
ExecutionTime = 0.09 s  ClockTime = 6 s

Calculating grad(U).
Time = 78

smoothSolver:  Solving for Ux, Initial residual = 0.0107148, Final residual = 0.000904178, No Iterations 7
smoothSolver:  Solving for Uy, Initial residual = 0.367029, Final residual = 0.018687, No Iterations 2
GAMG:  Solving for p, Initial residual = 0.0273568, Final residual = 0.00209955, No Iterations 2
time step continuity errors : sum local = 8.83176e-08, global = -4.79408e-19, cumulative = -2.64993e-17
smoothSolver:  Solving for omega, Initial residual = 0.000628675, Final residual = 3.3716e-05, No Iterations 4
smoothSolver:  Solving for k, Initial residual = 0.0174788, Final residual = 0.00126163, No Iterations 4
ExecutionTime = 0.09 s  ClockTime = 6 s

Calculating grad(U).
Time = 79

smoothSolver:  Solving for Ux, Initial residual = 0.0102549, Final residual = 0.000868738, No Iterations 7
smoothSolver:  Solving for Uy, Initial residual = 0.438984, Final residual = 0.0221741, No Iterations 2
GAMG:  Solving for p, Initial residual = 0.0263966, Final residual = 0.00176571, No Iterations 2
time step continuity errors : sum local = 7.83006e-08, global = -7.59654e-19, cumulative = -2.72589e-17
smoothSolver:  Solving for omega, Initial residual = 0.000567111, Final residual = 5.21804e-05, No Iterations 3
smoothSolver:  Solving for k, Initial residual = 0.0184427, Final residual = 0.00117882, No Iterations 4
ExecutionTime = 0.09 s  ClockTime = 6 s

Calculating grad(U).
Time = 80

smoothSolver:  Solving for Ux, Initial residual = 0.00976261, Final residual = 0.000826852, No Iterations 7
smoothSolver:  Solving for Uy, Initial residual = 0.430448, Final residual = 0.0217755, No Iterations 2
GAMG:  Solving for p, Initial residual = 0.0270218, Final residual = 0.00252206, No Iterations 2
time step continuity errors : sum local = 1.08126e-07, global = -7.49943e-19, cumulative = -2.80089e-17
smoothSolver:  Solving for omega, Initial residual = 0.000546117, Final residual = 5.28445e-05, No Iterations 3
smoothSolver:  Solving for k, Initial residual = 0.0196016, Final residual = 0.00164922, No Iterations 4
ExecutionTime = 0.09 s  ClockTime = 6 s

Calculating grad(U).
Time = 81

smoothSolver:  Solving for Ux, Initial residual = 0.00920766, Final residual = 0.000783151, No Iterations 7
smoothSolver:  Solving for Uy, Initial residual = 0.410608, Final residual = 0.019976, No Iterations 2
GAMG:  Solving for p, Initial residual = 0.0301459, Final residual = 0.00191786, No Iterations 4
time step continuity errors : sum local = 6.86972e-08, global = 4.95992e-19, cumulative = -2.75129e-17
smoothSolver:  Solving for omega, Initial residual = 0.000505103, Final residual = 5.04253e-05, No Iterations 3
smoothSolver:  Solving for k, Initial residual = 0.0201567, Final residual = 0.00149426, No Iterations 4
ExecutionTime = 0.09 s  ClockTime = 6 s

Calculating grad(U).
Time = 82

smoothSolver:  Solving for Ux, Initial residual = 0.00873477, Final residual = 0.000740472, No Iterations 7
smoothSolver:  Solving for Uy, Initial residual = 0.422039, Final residual = 0.0215669, No Iterations 2
GAMG:  Solving for p, Initial residual = 0.0388537, Final residual = 0.00198542, No Iterations 2
time step continuity errors : sum local = 7.15037e-08, global = -1.1448e-18, cumulative = -2.86577e-17
smoothSolver:  Solving for omega, Initial residual = 0.000512673, Final residual = 3.39672e-05, No Iterations 4
smoothSolver:  Solving for k, Initial residual = 0.0210624, Final residual = 0.00174189, No Iterations 4
ExecutionTime = 0.09 s  ClockTime = 6 s

Calculating grad(U).
Time = 83

smoothSolver:  Solving for Ux, Initial residual = 0.00828704, Final residual = 0.000702203, No Iterations 7
smoothSolver:  Solving for Uy, Initial residual = 0.380882, Final residual = 0.0220654, No Iterations 2
GAMG:  Solving for p, Initial residual = 0.0272153, Final residual = 0.00209133, No Iterations 2
time step continuity errors : sum local = 7.52163e-08, global = -9.75191e-20, cumulative = -2.87552e-17
smoothSolver:  Solving for omega, Initial residual = 0.000456914, Final residual = 2.41958e-05, No Iterations 4
smoothSolver:  Solving for k, Initial residual = 0.0211239, Final residual = 0.00176175, No Iterations 4
ExecutionTime = 0.1 s  ClockTime = 6 s

Calculating grad(U).
Time = 84

smoothSolver:  Solving for Ux, Initial residual = 0.00776946, Final residual = 0.000664072, No Iterations 7
smoothSolver:  Solving for Uy, Initial residual = 0.503803, Final residual = 0.024593, No Iterations 2
GAMG:  Solving for p, Initial residual = 0.0328081, Final residual = 0.00258463, No Iterations 2
time step continuity errors : sum local = 8.7347e-08, global = -1.25654e-18, cumulative = -3.00118e-17
smoothSolver:  Solving for omega, Initial residual = 0.000426975, Final residual = 4.25301e-05, No Iterations 3
smoothSolver:  Solving for k, Initial residual = 0.021476, Final residual = 0.00158913, No Iterations 4
ExecutionTime = 0.1 s  ClockTime = 6 s

Calculating grad(U).
Time = 85

smoothSolver:  Solving for Ux, Initial residual = 0.00731326, Final residual = 0.000623006, No Iterations 7
smoothSolver:  Solving for Uy, Initial residual = 0.44381, Final residual = 0.0232271, No Iterations 2
GAMG:  Solving for p, Initial residual = 0.0383047, Final residual = 0.00222196, No Iterations 2
time step continuity errors : sum local = 7.52061e-08, global = -9.99156e-19, cumulative = -3.10109e-17
smoothSolver:  Solving for omega, Initial residual = 0.00041603, Final residual = 2.25823e-05, No Iterations 4
smoothSolver:  Solving for k, Initial residual = 0.0223968, Final residual = 0.00207688, No Iterations 4
ExecutionTime = 0.1 s  ClockTime = 6 s

Calculating grad(U).
Time = 86

smoothSolver:  Solving for Ux, Initial residual = 0.00682779, Final residual = 0.000583533, No Iterations 7
smoothSolver:  Solving for Uy, Initial residual = 0.391739, Final residual = 0.0188747, No Iterations 2
GAMG:  Solving for p, Initial residual = 0.0329508, Final residual = 0.00247999, No Iterations 2
time step continuity errors : sum local = 7.57446e-08, global = -7.72491e-19, cumulative = -3.17834e-17
smoothSolver:  Solving for omega, Initial residual = 0.000382683, Final residual = 2.13164e-05, No Iterations 4
smoothSolver:  Solving for k, Initial residual = 0.0214695, Final residual = 0.00174402, No Iterations 4
ExecutionTime = 0.1 s  ClockTime = 6 s

Calculating grad(U).
Time = 87

smoothSolver:  Solving for Ux, Initial residual = 0.00634757, Final residual = 0.000546078, No Iterations 7
smoothSolver:  Solving for Uy, Initial residual = 0.61087, Final residual = 0.0292391, No Iterations 2
GAMG:  Solving for p, Initial residual = 0.0306184, Final residual = 0.00268086, No Iterations 2
time step continuity errors : sum local = 7.55907e-08, global = -1.68038e-19, cumulative = -3.19514e-17
smoothSolver:  Solving for omega, Initial residual = 0.000356252, Final residual = 1.85143e-05, No Iterations 4
smoothSolver:  Solving for k, Initial residual = 0.0221214, Final residual = 0.00166801, No Iterations 4
ExecutionTime = 0.1 s  ClockTime = 6 s

Calculating grad(U).
Time = 88

smoothSolver:  Solving for Ux, Initial residual = 0.00598699, Final residual = 0.000512882, No Iterations 7
smoothSolver:  Solving for Uy, Initial residual = 0.683846, Final residual = 0.0309964, No Iterations 2
GAMG:  Solving for p, Initial residual = 0.0361926, Final residual = 0.00205585, No Iterations 3
time step continuity errors : sum local = 5.94287e-08, global = -1.98206e-19, cumulative = -3.21497e-17
smoothSolver:  Solving for omega, Initial residual = 0.000327066, Final residual = 1.46167e-05, No Iterations 4
smoothSolver:  Solving for k, Initial residual = 0.0227215, Final residual = 0.0022583, No Iterations 4
ExecutionTime = 0.1 s  ClockTime = 6 s

Calculating grad(U).
Time = 89

smoothSolver:  Solving for Ux, Initial residual = 0.00557602, Final residual = 0.000476973, No Iterations 7
smoothSolver:  Solving for Uy, Initial residual = 0.477518, Final residual = 0.0241544, No Iterations 2
GAMG:  Solving for p, Initial residual = 0.0383809, Final residual = 0.00311153, No Iterations 2
time step continuity errors : sum local = 8.08498e-08, global = -3.24751e-19, cumulative = -3.24744e-17
smoothSolver:  Solving for omega, Initial residual = 0.000309842, Final residual = 2.96268e-05, No Iterations 3
smoothSolver:  Solving for k, Initial residual = 0.0210636, Final residual = 0.00170275, No Iterations 4
ExecutionTime = 0.1 s  ClockTime = 6 s

Calculating grad(U).
Time = 90

smoothSolver:  Solving for Ux, Initial residual = 0.00512922, Final residual = 0.000441029, No Iterations 7
smoothSolver:  Solving for Uy, Initial residual = 0.500422, Final residual = 0.0225088, No Iterations 2
GAMG:  Solving for p, Initial residual = 0.0436085, Final residual = 0.00352858, No Iterations 2
time step continuity errors : sum local = 7.97758e-08, global = -5.58731e-19, cumulative = -3.30331e-17
smoothSolver:  Solving for omega, Initial residual = 0.00031121, Final residual = 2.13849e-05, No Iterations 4
smoothSolver:  Solving for k, Initial residual = 0.0219339, Final residual = 0.00185548, No Iterations 4
ExecutionTime = 0.1 s  ClockTime = 6 s

Calculating grad(U).
Time = 91

smoothSolver:  Solving for Ux, Initial residual = 0.00482063, Final residual = 0.000412303, No Iterations 7
smoothSolver:  Solving for Uy, Initial residual = 0.596225, Final residual = 0.0263205, No Iterations 2
GAMG:  Solving for p, Initial residual = 0.042766, Final residual = 0.00389944, No Iterations 2
time step continuity errors : sum local = 9.02085e-08, global = -4.00639e-19, cumulative = -3.34338e-17
smoothSolver:  Solving for omega, Initial residual = 0.000265784, Final residual = 2.57617e-05, No Iterations 3
smoothSolver:  Solving for k, Initial residual = 0.021367, Final residual = 0.00183313, No Iterations 4
ExecutionTime = 0.1 s  ClockTime = 6 s

Calculating grad(U).
Time = 92

smoothSolver:  Solving for Ux, Initial residual = 0.00438531, Final residual = 0.000378647, No Iterations 7
smoothSolver:  Solving for Uy, Initial residual = 0.433931, Final residual = 0.0254349, No Iterations 2
GAMG:  Solving for p, Initial residual = 0.0447931, Final residual = 0.003629, No Iterations 2
time step continuity errors : sum local = 7.69977e-08, global = -1.03223e-18, cumulative = -3.4466e-17
smoothSolver:  Solving for omega, Initial residual = 0.000257274, Final residual = 1.44471e-05, No Iterations 4
smoothSolver:  Solving for k, Initial residual = 0.0207313, Final residual = 0.00195672, No Iterations 4
ExecutionTime = 0.11 s  ClockTime = 6 s

Calculating grad(U).
Time = 93

smoothSolver:  Solving for Ux, Initial residual = 0.0040187, Final residual = 0.000348618, No Iterations 7
smoothSolver:  Solving for Uy, Initial residual = 0.386182, Final residual = 0.0203675, No Iterations 2
GAMG:  Solving for p, Initial residual = 0.0444436, Final residual = 0.00340488, No Iterations 2
time step continuity errors : sum local = 6.33079e-08, global = -7.19623e-20, cumulative = -3.4538e-17
smoothSolver:  Solving for omega, Initial residual = 0.00023959, Final residual = 1.39214e-05, No Iterations 4
smoothSolver:  Solving for k, Initial residual = 0.0197409, Final residual = 0.00160597, No Iterations 4
ExecutionTime = 0.11 s  ClockTime = 6 s

Calculating grad(U).
Time = 94

smoothSolver:  Solving for Ux, Initial residual = 0.0037362, Final residual = 0.000322489, No Iterations 7
smoothSolver:  Solving for Uy, Initial residual = 0.489798, Final residual = 0.025733, No Iterations 2
GAMG:  Solving for p, Initial residual = 0.0434326, Final residual = 0.00349157, No Iterations 2
time step continuity errors : sum local = 5.97224e-08, global = 1.47018e-20, cumulative = -3.45233e-17
smoothSolver:  Solving for omega, Initial residual = 0.000220498, Final residual = 1.11083e-05, No Iterations 4
smoothSolver:  Solving for k, Initial residual = 0.0204778, Final residual = 0.00187753, No Iterations 4
ExecutionTime = 0.11 s  ClockTime = 6 s

Calculating grad(U).
Time = 95

smoothSolver:  Solving for Ux, Initial residual = 0.00334245, Final residual = 0.000293737, No Iterations 7
smoothSolver:  Solving for Uy, Initial residual = 0.383266, Final residual = 0.0200616, No Iterations 2
GAMG:  Solving for p, Initial residual = 0.0494936, Final residual = 0.00309038, No Iterations 2
time step continuity errors : sum local = 5.03073e-08, global = -4.79423e-19, cumulative = -3.50027e-17
smoothSolver:  Solving for omega, Initial residual = 0.000206132, Final residual = 1.0897e-05, No Iterations 4
smoothSolver:  Solving for k, Initial residual = 0.0188576, Final residual = 0.00158567, No Iterations 4
ExecutionTime = 0.11 s  ClockTime = 6 s

Calculating grad(U).
Time = 96

smoothSolver:  Solving for Ux, Initial residual = 0.00307426, Final residual = 0.00026904, No Iterations 7
smoothSolver:  Solving for Uy, Initial residual = 0.509748, Final residual = 0.0248869, No Iterations 2
GAMG:  Solving for p, Initial residual = 0.0477985, Final residual = 0.00408774, No Iterations 2
time step continuity errors : sum local = 6.46113e-08, global = -2.67517e-20, cumulative = -3.50294e-17
smoothSolver:  Solving for omega, Initial residual = 0.000193682, Final residual = 1.01587e-05, No Iterations 4
smoothSolver:  Solving for k, Initial residual = 0.0180654, Final residual = 0.0014087, No Iterations 4
ExecutionTime = 0.11 s  ClockTime = 6 s

Calculating grad(U).
Time = 97

smoothSolver:  Solving for Ux, Initial residual = 0.00279893, Final residual = 0.000245664, No Iterations 7
smoothSolver:  Solving for Uy, Initial residual = 0.539145, Final residual = 0.0265162, No Iterations 2
GAMG:  Solving for p, Initial residual = 0.0459546, Final residual = 0.00325978, No Iterations 2
time step continuity errors : sum local = 4.56125e-08, global = -5.29152e-19, cumulative = -3.55586e-17
smoothSolver:  Solving for omega, Initial residual = 0.0001782, Final residual = 1.00477e-05, No Iterations 4
smoothSolver:  Solving for k, Initial residual = 0.0189469, Final residual = 0.00111029, No Iterations 5
ExecutionTime = 0.11 s  ClockTime = 6 s

Calculating grad(U).
Time = 98

smoothSolver:  Solving for Ux, Initial residual = 0.00251863, Final residual = 0.000221361, No Iterations 7
smoothSolver:  Solving for Uy, Initial residual = 0.458901, Final residual = 0.0222453, No Iterations 2
GAMG:  Solving for p, Initial residual = 0.0484394, Final residual = 0.0026533, No Iterations 3
time step continuity errors : sum local = 3.46135e-08, global = -6.84593e-19, cumulative = -3.62432e-17
smoothSolver:  Solving for omega, Initial residual = 0.000164222, Final residual = 7.09778e-06, No Iterations 4
smoothSolver:  Solving for k, Initial residual = 0.0162682, Final residual = 0.000969462, No Iterations 4
ExecutionTime = 0.11 s  ClockTime = 6 s

Calculating grad(U).
Time = 99

smoothSolver:  Solving for Ux, Initial residual = 0.00228889, Final residual = 0.000201363, No Iterations 7
smoothSolver:  Solving for Uy, Initial residual = 0.544853, Final residual = 0.0258215, No Iterations 2
GAMG:  Solving for p, Initial residual = 0.0465598, Final residual = 0.00390297, No Iterations 2
time step continuity errors : sum local = 5.20821e-08, global = -3.15071e-19, cumulative = -3.65583e-17
smoothSolver:  Solving for omega, Initial residual = 0.00015388, Final residual = 7.66172e-06, No Iterations 4
smoothSolver:  Solving for k, Initial residual = 0.0171105, Final residual = 0.00162984, No Iterations 4
ExecutionTime = 0.11 s  ClockTime = 6 s

Calculating grad(U).
Time = 100

smoothSolver:  Solving for Ux, Initial residual = 0.00206735, Final residual = 0.000181347, No Iterations 7
smoothSolver:  Solving for Uy, Initial residual = 0.491055, Final residual = 0.0222601, No Iterations 2
GAMG:  Solving for p, Initial residual = 0.0474079, Final residual = 0.00357208, No Iterations 2
time step continuity errors : sum local = 4.1174e-08, global = -6.68457e-19, cumulative = -3.72267e-17
smoothSolver:  Solving for omega, Initial residual = 0.00014408, Final residual = 7.50046e-06, No Iterations 4
smoothSolver:  Solving for k, Initial residual = 0.0158664, Final residual = 0.00134276, No Iterations 4
ExecutionTime = 0.11 s  ClockTime = 6 s

Calculating grad(U).
Time = 101

smoothSolver:  Solving for Ux, Initial residual = 0.00185177, Final residual = 0.000162386, No Iterations 7
smoothSolver:  Solving for Uy, Initial residual = 0.392857, Final residual = 0.0213395, No Iterations 2
GAMG:  Solving for p, Initial residual = 0.0504844, Final residual = 0.00377108, No Iterations 2
time step continuity errors : sum local = 3.89815e-08, global = -6.77421e-19, cumulative = -3.79041e-17
smoothSolver:  Solving for omega, Initial residual = 0.000136384, Final residual = 6.53014e-06, No Iterations 4
smoothSolver:  Solving for k, Initial residual = 0.0148881, Final residual = 0.00103681, No Iterations 4
ExecutionTime = 0.12 s  ClockTime = 6 s

Calculating grad(U).
Time = 102

smoothSolver:  Solving for Ux, Initial residual = 0.00168281, Final residual = 0.000145213, No Iterations 7
smoothSolver:  Solving for Uy, Initial residual = 0.48152, Final residual = 0.020152, No Iterations 2
GAMG:  Solving for p, Initial residual = 0.0548657, Final residual = 0.00437914, No Iterations 2
time step continuity errors : sum local = 4.14236e-08, global = -7.68401e-19, cumulative = -3.86725e-17
smoothSolver:  Solving for omega, Initial residual = 0.000125924, Final residual = 6.19061e-06, No Iterations 4
smoothSolver:  Solving for k, Initial residual = 0.01427, Final residual = 0.00112867, No Iterations 4
ExecutionTime = 0.12 s  ClockTime = 6 s

Calculating grad(U).
Time = 103

smoothSolver:  Solving for Ux, Initial residual = 0.00151873, Final residual = 0.000130216, No Iterations 7
smoothSolver:  Solving for Uy, Initial residual = 0.602251, Final residual = 0.0249649, No Iterations 2
GAMG:  Solving for p, Initial residual = 0.0534527, Final residual = 0.00448475, No Iterations 2
time step continuity errors : sum local = 3.9606e-08, global = -2.84691e-19, cumulative = -3.89572e-17
smoothSolver:  Solving for omega, Initial residual = 0.000120537, Final residual = 5.42329e-06, No Iterations 4
smoothSolver:  Solving for k, Initial residual = 0.0142984, Final residual = 0.00125298, No Iterations 4
ExecutionTime = 0.12 s  ClockTime = 6 s

Calculating grad(U).
Time = 104

smoothSolver:  Solving for Ux, Initial residual = 0.00133717, Final residual = 0.000115418, No Iterations 7
smoothSolver:  Solving for Uy, Initial residual = 0.473676, Final residual = 0.0242621, No Iterations 2
GAMG:  Solving for p, Initial residual = 0.0527117, Final residual = 0.00389639, No Iterations 2
time step continuity errors : sum local = 3.32846e-08, global = -8.24178e-19, cumulative = -3.97814e-17
smoothSolver:  Solving for omega, Initial residual = 0.000115653, Final residual = 6.17158e-06, No Iterations 4
smoothSolver:  Solving for k, Initial residual = 0.0130656, Final residual = 0.000739214, No Iterations 4
ExecutionTime = 0.12 s  ClockTime = 6 s

Calculating grad(U).
Time = 105

smoothSolver:  Solving for Ux, Initial residual = 0.00122709, Final residual = 0.000104042, No Iterations 7
smoothSolver:  Solving for Uy, Initial residual = 0.612558, Final residual = 0.0258173, No Iterations 2
GAMG:  Solving for p, Initial residual = 0.0631826, Final residual = 0.00472988, No Iterations 2
time step continuity errors : sum local = 3.16004e-08, global = -6.58415e-19, cumulative = -4.04398e-17
smoothSolver:  Solving for omega, Initial residual = 0.000104552, Final residual = 9.70931e-06, No Iterations 3
smoothSolver:  Solving for k, Initial residual = 0.0127809, Final residual = 0.00127479, No Iterations 4
ExecutionTime = 0.12 s  ClockTime = 6 s

Calculating grad(U).
Time = 106

smoothSolver:  Solving for Ux, Initial residual = 0.00110951, Final residual = 9.27458e-05, No Iterations 7
smoothSolver:  Solving for Uy, Initial residual = 0.726365, Final residual = 0.0286665, No Iterations 2
GAMG:  Solving for p, Initial residual = 0.0639658, Final residual = 0.0053929, No Iterations 4
time step continuity errors : sum local = 3.52823e-08, global = -9.14756e-19, cumulative = -4.13546e-17
smoothSolver:  Solving for omega, Initial residual = 0.00010292, Final residual = 5.88693e-06, No Iterations 4
smoothSolver:  Solving for k, Initial residual = 0.012632, Final residual = 0.00103947, No Iterations 4
ExecutionTime = 0.12 s  ClockTime = 6 s

Calculating grad(U).
Time = 107

smoothSolver:  Solving for Ux, Initial residual = 0.00101815, Final residual = 8.48956e-05, No Iterations 7
smoothSolver:  Solving for Uy, Initial residual = 0.566638, Final residual = 0.0290944, No Iterations 2
GAMG:  Solving for p, Initial residual = 0.0715082, Final residual = 0.00611909, No Iterations 3
time step continuity errors : sum local = 3.46253e-08, global = -1.84843e-19, cumulative = -4.15394e-17
smoothSolver:  Solving for omega, Initial residual = 9.42319e-05, Final residual = 7.72102e-06, No Iterations 3
smoothSolver:  Solving for k, Initial residual = 0.0117827, Final residual = 0.000965216, No Iterations 4
ExecutionTime = 0.12 s  ClockTime = 6 s

Calculating grad(U).
Time = 108

smoothSolver:  Solving for Ux, Initial residual = 0.000915473, Final residual = 7.75142e-05, No Iterations 7
[...]
GAMG:  Solving for p, Initial residual = 0.00271515, Final residual = 0.000109548, No Iterations 3
time step continuity errors : sum local = 2.13717e-11, global = 2.71557e-19, cumulative = -3.41454e-16
smoothSolver:  Solving for omega, Initial residual = 6.34996e-06, Final residual = 6.34996e-06, No Iterations 0
smoothSolver:  Solving for k, Initial residual = 1.08158e-05, Final residual = 4.25435e-06, No Iterations 1
ExecutionTime = 0.89 s  ClockTime = 7 s

Calculating grad(U).
Time = 789

smoothSolver:  Solving for Ux, Initial residual = 1.18551e-05, Final residual = 8.66737e-06, No Iterations 1
smoothSolver:  Solving for Uy, Initial residual = 0.0288423, Final residual = 0.00118127, No Iterations 2
GAMG:  Solving for p, Initial residual = 0.00277499, Final residual = 0.000146729, No Iterations 3
time step continuity errors : sum local = 2.70363e-11, global = -5.20428e-19, cumulative = -3.41975e-16
smoothSolver:  Solving for omega, Initial residual = 6.35797e-06, Final residual = 6.35797e-06, No Iterations 0
smoothSolver:  Solving for k, Initial residual = 9.4524e-06, Final residual = 9.4524e-06, No Iterations 0
ExecutionTime = 0.89 s  ClockTime = 7 s

Calculating grad(U).
Time = 790

smoothSolver:  Solving for Ux, Initial residual = 1.18019e-05, Final residual = 8.64685e-06, No Iterations 1
smoothSolver:  Solving for Uy, Initial residual = 0.0300208, Final residual = 0.00110625, No Iterations 2
GAMG:  Solving for p, Initial residual = 0.0025615, Final residual = 0.000255128, No Iterations 2
time step continuity errors : sum local = 4.7651e-11, global = -8.52508e-19, cumulative = -3.42827e-16
smoothSolver:  Solving for omega, Initial residual = 6.39455e-06, Final residual = 6.39455e-06, No Iterations 0
smoothSolver:  Solving for k, Initial residual = 9.67356e-06, Final residual = 9.67356e-06, No Iterations 0
ExecutionTime = 0.89 s  ClockTime = 7 s

Calculating grad(U).
Time = 791

smoothSolver:  Solving for Ux, Initial residual = 1.17737e-05, Final residual = 8.63351e-06, No Iterations 1
smoothSolver:  Solving for Uy, Initial residual = 0.0275642, Final residual = 0.00102999, No Iterations 2
GAMG:  Solving for p, Initial residual = 0.00234262, Final residual = 0.00020163, No Iterations 2
time step continuity errors : sum local = 3.72233e-11, global = -4.90605e-19, cumulative = -3.43318e-16
smoothSolver:  Solving for omega, Initial residual = 6.45347e-06, Final residual = 6.45347e-06, No Iterations 0
smoothSolver:  Solving for k, Initial residual = 9.91955e-06, Final residual = 9.91955e-06, No Iterations 0
ExecutionTime = 0.89 s  ClockTime = 7 s

Calculating grad(U).
Time = 792

smoothSolver:  Solving for Ux, Initial residual = 1.17552e-05, Final residual = 8.6233e-06, No Iterations 1
smoothSolver:  Solving for Uy, Initial residual = 0.024931, Final residual = 0.000958915, No Iterations 2
GAMG:  Solving for p, Initial residual = 0.00217073, Final residual = 0.000166673, No Iterations 2
time step continuity errors : sum local = 3.02457e-11, global = -4.45236e-19, cumulative = -3.43763e-16
smoothSolver:  Solving for omega, Initial residual = 6.52355e-06, Final residual = 6.52355e-06, No Iterations 0
smoothSolver:  Solving for k, Initial residual = 1.01958e-05, Final residual = 4.62451e-06, No Iterations 1
ExecutionTime = 0.89 s  ClockTime = 7 s

Calculating grad(U).
Time = 793

smoothSolver:  Solving for Ux, Initial residual = 1.17413e-05, Final residual = 8.58959e-06, No Iterations 1
smoothSolver:  Solving for Uy, Initial residual = 0.0234767, Final residual = 0.000892654, No Iterations 2
GAMG:  Solving for p, Initial residual = 0.00214568, Final residual = 0.00019907, No Iterations 2
time step continuity errors : sum local = 3.70046e-11, global = -5.95965e-19, cumulative = -3.44359e-16
smoothSolver:  Solving for omega, Initial residual = 6.55184e-06, Final residual = 6.55184e-06, No Iterations 0
smoothSolver:  Solving for k, Initial residual = 9.72248e-06, Final residual = 9.72248e-06, No Iterations 0
ExecutionTime = 0.89 s  ClockTime = 7 s

Calculating grad(U).
Time = 794

smoothSolver:  Solving for Ux, Initial residual = 1.16942e-05, Final residual = 8.5717e-06, No Iterations 1
smoothSolver:  Solving for Uy, Initial residual = 0.0216458, Final residual = 0.000856323, No Iterations 2
GAMG:  Solving for p, Initial residual = 0.00194125, Final residual = 0.000175285, No Iterations 2
time step continuity errors : sum local = 3.15093e-11, global = -3.14525e-19, cumulative = -3.44674e-16
smoothSolver:  Solving for omega, Initial residual = 6.598e-06, Final residual = 6.598e-06, No Iterations 0
smoothSolver:  Solving for k, Initial residual = 1.00039e-05, Final residual = 3.93523e-06, No Iterations 1
ExecutionTime = 0.89 s  ClockTime = 7 s

Calculating grad(U).
Time = 795

smoothSolver:  Solving for Ux, Initial residual = 1.16696e-05, Final residual = 8.53644e-06, No Iterations 1
smoothSolver:  Solving for Uy, Initial residual = 0.0217311, Final residual = 0.000766094, No Iterations 2
GAMG:  Solving for p, Initial residual = 0.0020174, Final residual = 0.00012641, No Iterations 3
time step continuity errors : sum local = 2.1674e-11, global = -9.16338e-19, cumulative = -3.4559e-16
smoothSolver:  Solving for omega, Initial residual = 6.61801e-06, Final residual = 6.61801e-06, No Iterations 0
smoothSolver:  Solving for k, Initial residual = 9.0056e-06, Final residual = 9.0056e-06, No Iterations 0
ExecutionTime = 0.89 s  ClockTime = 7 s

Calculating grad(U).
Time = 796

smoothSolver:  Solving for Ux, Initial residual = 1.16197e-05, Final residual = 8.51718e-06, No Iterations 1
smoothSolver:  Solving for Uy, Initial residual = 0.0237195, Final residual = 0.000799893, No Iterations 2
GAMG:  Solving for p, Initial residual = 0.00184934, Final residual = 0.000179928, No Iterations 2
time step continuity errors : sum local = 3.13653e-11, global = -5.89271e-19, cumulative = -3.46179e-16
smoothSolver:  Solving for omega, Initial residual = 6.65983e-06, Final residual = 6.65983e-06, No Iterations 0
smoothSolver:  Solving for k, Initial residual = 9.25432e-06, Final residual = 9.25432e-06, No Iterations 0
ExecutionTime = 0.9 s  ClockTime = 7 s

Calculating grad(U).
Time = 797

smoothSolver:  Solving for Ux, Initial residual = 1.15936e-05, Final residual = 8.50475e-06, No Iterations 1
smoothSolver:  Solving for Uy, Initial residual = 0.022093, Final residual = 0.000804045, No Iterations 2
GAMG:  Solving for p, Initial residual = 0.00170542, Final residual = 0.000146507, No Iterations 2
time step continuity errors : sum local = 2.46427e-11, global = 3.01581e-19, cumulative = -3.45878e-16
smoothSolver:  Solving for omega, Initial residual = 6.72184e-06, Final residual = 6.72184e-06, No Iterations 0
smoothSolver:  Solving for k, Initial residual = 9.50686e-06, Final residual = 9.50686e-06, No Iterations 0
ExecutionTime = 0.9 s  ClockTime = 7 s

Calculating grad(U).
Time = 798

smoothSolver:  Solving for Ux, Initial residual = 1.15765e-05, Final residual = 8.4952e-06, No Iterations 1
smoothSolver:  Solving for Uy, Initial residual = 0.0199698, Final residual = 0.000746794, No Iterations 2
GAMG:  Solving for p, Initial residual = 0.00159621, Final residual = 0.000129953, No Iterations 2
time step continuity errors : sum local = 2.2248e-11, global = -6.04954e-19, cumulative = -3.46483e-16
smoothSolver:  Solving for omega, Initial residual = 6.79368e-06, Final residual = 6.79368e-06, No Iterations 0
smoothSolver:  Solving for k, Initial residual = 9.77928e-06, Final residual = 9.77928e-06, No Iterations 0
ExecutionTime = 0.9 s  ClockTime = 7 s

Calculating grad(U).
Time = 799

smoothSolver:  Solving for Ux, Initial residual = 1.15639e-05, Final residual = 8.48708e-06, No Iterations 1
smoothSolver:  Solving for Uy, Initial residual = 0.0184922, Final residual = 0.000689211, No Iterations 2
GAMG:  Solving for p, Initial residual = 0.0015017, Final residual = 0.000122512, No Iterations 2
time step continuity errors : sum local = 2.23248e-11, global = -2.51251e-19, cumulative = -3.46734e-16
smoothSolver:  Solving for omega, Initial residual = 6.87068e-06, Final residual = 6.87068e-06, No Iterations 0
smoothSolver:  Solving for k, Initial residual = 1.0064e-05, Final residual = 4.37617e-06, No Iterations 1
ExecutionTime = 0.9 s  ClockTime = 7 s

Calculating grad(U).
Time = 800

smoothSolver:  Solving for Ux, Initial residual = 1.15528e-05, Final residual = 8.44961e-06, No Iterations 1
smoothSolver:  Solving for Uy, Initial residual = 0.0181281, Final residual = 0.000684154, No Iterations 2
GAMG:  Solving for p, Initial residual = 0.00159089, Final residual = 0.000129674, No Iterations 3
time step continuity errors : sum local = 2.20368e-11, global = 9.00606e-20, cumulative = -3.46644e-16
smoothSolver:  Solving for omega, Initial residual = 6.89223e-06, Final residual = 6.89223e-06, No Iterations 0
smoothSolver:  Solving for k, Initial residual = 1.05301e-05, Final residual = 4.23934e-06, No Iterations 1
ExecutionTime = 0.9 s  ClockTime = 7 s

Calculating grad(U).
Time = 801

smoothSolver:  Solving for Ux, Initial residual = 1.15012e-05, Final residual = 8.40593e-06, No Iterations 1
smoothSolver:  Solving for Uy, Initial residual = 0.0183357, Final residual = 0.000674119, No Iterations 2
GAMG:  Solving for p, Initial residual = 0.00156917, Final residual = 0.000129203, No Iterations 4
time step continuity errors : sum local = 2.1519e-11, global = 1.74099e-19, cumulative = -3.4647e-16
smoothSolver:  Solving for omega, Initial residual = 6.88608e-06, Final residual = 6.88608e-06, No Iterations 0
smoothSolver:  Solving for k, Initial residual = 9.14308e-06, Final residual = 9.14308e-06, No Iterations 0
ExecutionTime = 0.9 s  ClockTime = 7 s

Calculating grad(U).
Time = 802

smoothSolver:  Solving for Ux, Initial residual = 1.14403e-05, Final residual = 8.38341e-06, No Iterations 1
smoothSolver:  Solving for Uy, Initial residual = 0.0197424, Final residual = 0.000660726, No Iterations 2
GAMG:  Solving for p, Initial residual = 0.00136124, Final residual = 0.00011317, No Iterations 3
time step continuity errors : sum local = 1.9422e-11, global = -2.61215e-19, cumulative = -3.46731e-16
smoothSolver:  Solving for omega, Initial residual = 6.91442e-06, Final residual = 6.91442e-06, No Iterations 0
smoothSolver:  Solving for k, Initial residual = 9.38374e-06, Final residual = 9.38374e-06, No Iterations 0
ExecutionTime = 0.9 s  ClockTime = 7 s

Calculating grad(U).
Time = 803

smoothSolver:  Solving for Ux, Initial residual = 1.14092e-05, Final residual = 8.36931e-06, No Iterations 1
smoothSolver:  Solving for Uy, Initial residual = 0.0180245, Final residual = 0.000603863, No Iterations 2
GAMG:  Solving for p, Initial residual = 0.00123215, Final residual = 0.000117261, No Iterations 2
time step continuity errors : sum local = 2.06227e-11, global = -6.71902e-19, cumulative = -3.47403e-16
smoothSolver:  Solving for omega, Initial residual = 6.9688e-06, Final residual = 6.9688e-06, No Iterations 0
smoothSolver:  Solving for k, Initial residual = 9.63288e-06, Final residual = 9.63288e-06, No Iterations 0
ExecutionTime = 0.9 s  ClockTime = 7 s

Calculating grad(U).
Time = 804

smoothSolver:  Solving for Ux, Initial residual = 1.13896e-05, Final residual = 8.35869e-06, No Iterations 1
smoothSolver:  Solving for Uy, Initial residual = 0.015555, Final residual = 0.000523124, No Iterations 2
GAMG:  Solving for p, Initial residual = 0.0011469, Final residual = 0.00010574, No Iterations 2
time step continuity errors : sum local = 1.93772e-11, global = -4.16975e-19, cumulative = -3.4782e-16
smoothSolver:  Solving for omega, Initial residual = 7.0358e-06, Final residual = 7.0358e-06, No Iterations 0
smoothSolver:  Solving for k, Initial residual = 9.90083e-06, Final residual = 9.90083e-06, No Iterations 0
ExecutionTime = 0.9 s  ClockTime = 7 s

Calculating grad(U).
Time = 805

smoothSolver:  Solving for Ux, Initial residual = 1.13754e-05, Final residual = 8.34995e-06, No Iterations 1
smoothSolver:  Solving for Uy, Initial residual = 0.0138392, Final residual = 0.000473856, No Iterations 2
GAMG:  Solving for p, Initial residual = 0.00108374, Final residual = 0.000101335, No Iterations 2
time step continuity errors : sum local = 1.88486e-11, global = -3.87746e-19, cumulative = -3.48208e-16
smoothSolver:  Solving for omega, Initial residual = 7.10943e-06, Final residual = 7.10943e-06, No Iterations 0
smoothSolver:  Solving for k, Initial residual = 1.01845e-05, Final residual = 4.39117e-06, No Iterations 1
ExecutionTime = 0.91 s  ClockTime = 7 s

Calculating grad(U).
Time = 806

smoothSolver:  Solving for Ux, Initial residual = 1.13639e-05, Final residual = 8.31086e-06, No Iterations 1
smoothSolver:  Solving for Uy, Initial residual = 0.0136136, Final residual = 0.000476439, No Iterations 2
GAMG:  Solving for p, Initial residual = 0.00127021, Final residual = 0.000118807, No Iterations 2
time step continuity errors : sum local = 1.9919e-11, global = -5.00577e-19, cumulative = -3.48708e-16
smoothSolver:  Solving for omega, Initial residual = 7.12736e-06, Final residual = 7.12736e-06, No Iterations 0
smoothSolver:  Solving for k, Initial residual = 1.08939e-05, Final residual = 4.51203e-06, No Iterations 1
ExecutionTime = 0.91 s  ClockTime = 7 s

Calculating grad(U).
Time = 807

smoothSolver:  Solving for Ux, Initial residual = 1.13106e-05, Final residual = 8.26575e-06, No Iterations 1
smoothSolver:  Solving for Uy, Initial residual = 0.0139017, Final residual = 0.00048371, No Iterations 2
GAMG:  Solving for p, Initial residual = 0.00125906, Final residual = 0.000111721, No Iterations 3
time step continuity errors : sum local = 1.91335e-11, global = -6.51825e-19, cumulative = -3.4936e-16
smoothSolver:  Solving for omega, Initial residual = 7.11799e-06, Final residual = 7.11799e-06, No Iterations 0
smoothSolver:  Solving for k, Initial residual = 9.37864e-06, Final residual = 9.37864e-06, No Iterations 0
ExecutionTime = 0.91 s  ClockTime = 7 s

Calculating grad(U).
Time = 808

smoothSolver:  Solving for Ux, Initial residual = 1.1248e-05, Final residual = 8.24285e-06, No Iterations 1
smoothSolver:  Solving for Uy, Initial residual = 0.0159896, Final residual = 0.000537675, No Iterations 2
GAMG:  Solving for p, Initial residual = 0.00109739, Final residual = 0.000106786, No Iterations 2
time step continuity errors : sum local = 1.83922e-11, global = -9.58284e-19, cumulative = -3.50318e-16
smoothSolver:  Solving for omega, Initial residual = 7.14406e-06, Final residual = 7.14406e-06, No Iterations 0
smoothSolver:  Solving for k, Initial residual = 9.64219e-06, Final residual = 9.64219e-06, No Iterations 0
ExecutionTime = 0.91 s  ClockTime = 7 s

Calculating grad(U).
Time = 809

smoothSolver:  Solving for Ux, Initial residual = 1.12161e-05, Final residual = 8.22836e-06, No Iterations 1
smoothSolver:  Solving for Uy, Initial residual = 0.013974, Final residual = 0.000436977, No Iterations 2
GAMG:  Solving for p, Initial residual = 0.000973875, Final residual = 9.10979e-05, No Iterations 2
time step continuity errors : sum local = 1.65784e-11, global = 1.97228e-20, cumulative = -3.50299e-16
smoothSolver:  Solving for omega, Initial residual = 7.19677e-06, Final residual = 7.19677e-06, No Iterations 0
smoothSolver:  Solving for k, Initial residual = 9.90636e-06, Final residual = 9.90636e-06, No Iterations 0
ExecutionTime = 0.91 s  ClockTime = 7 s

Calculating grad(U).
Time = 810

smoothSolver:  Solving for Ux, Initial residual = 1.11962e-05, Final residual = 8.21753e-06, No Iterations 1
smoothSolver:  Solving for Uy, Initial residual = 0.0114276, Final residual = 0.000358489, No Iterations 2
GAMG:  Solving for p, Initial residual = 0.000908897, Final residual = 4.17718e-05, No Iterations 3
time step continuity errors : sum local = 7.59524e-12, global = -3.06407e-19, cumulative = -3.50605e-16
smoothSolver:  Solving for omega, Initial residual = 7.26227e-06, Final residual = 7.26227e-06, No Iterations 0
smoothSolver:  Solving for k, Initial residual = 1.0186e-05, Final residual = 4.39435e-06, No Iterations 1
ExecutionTime = 0.91 s  ClockTime = 7 s

Calculating grad(U).
Time = 811

smoothSolver:  Solving for Ux, Initial residual = 1.11819e-05, Final residual = 8.17871e-06, No Iterations 1
smoothSolver:  Solving for Uy, Initial residual = 0.0108205, Final residual = 0.000374723, No Iterations 2
GAMG:  Solving for p, Initial residual = 0.00107281, Final residual = 8.58437e-05, No Iterations 2
time step continuity errors : sum local = 1.44305e-11, global = -8.35664e-19, cumulative = -3.51441e-16
smoothSolver:  Solving for omega, Initial residual = 7.27978e-06, Final residual = 7.27978e-06, No Iterations 0
smoothSolver:  Solving for k, Initial residual = 1.11685e-05, Final residual = 4.71117e-06, No Iterations 1
ExecutionTime = 0.91 s  ClockTime = 7 s

Calculating grad(U).
Time = 812

smoothSolver:  Solving for Ux, Initial residual = 1.11292e-05, Final residual = 8.13447e-06, No Iterations 1
smoothSolver:  Solving for Uy, Initial residual = 0.0117107, Final residual = 0.000393771, No Iterations 2
GAMG:  Solving for p, Initial residual = 0.00112494, Final residual = 0.000108398, No Iterations 2
time step continuity errors : sum local = 1.8061e-11, global = -8.83336e-19, cumulative = -3.52324e-16
smoothSolver:  Solving for omega, Initial residual = 7.27298e-06, Final residual = 7.27298e-06, No Iterations 0
smoothSolver:  Solving for k, Initial residual = 9.71433e-06, Final residual = 9.71433e-06, No Iterations 0
ExecutionTime = 0.91 s  ClockTime = 7 s

Calculating grad(U).
Time = 813

smoothSolver:  Solving for Ux, Initial residual = 1.10685e-05, Final residual = 8.11203e-06, No Iterations 1
smoothSolver:  Solving for Uy, Initial residual = 0.0131893, Final residual = 0.000432609, No Iterations 2
GAMG:  Solving for p, Initial residual = 0.000981627, Final residual = 7.89274e-05, No Iterations 2
time step continuity errors : sum local = 1.45592e-11, global = -2.98627e-19, cumulative = -3.52623e-16
smoothSolver:  Solving for omega, Initial residual = 7.30053e-06, Final residual = 7.30053e-06, No Iterations 0
smoothSolver:  Solving for k, Initial residual = 9.98086e-06, Final residual = 9.98086e-06, No Iterations 0
ExecutionTime = 0.91 s  ClockTime = 7 s

Calculating grad(U).
Time = 814

smoothSolver:  Solving for Ux, Initial residual = 1.1037e-05, Final residual = 8.09749e-06, No Iterations 1
smoothSolver:  Solving for Uy, Initial residual = 0.0114344, Final residual = 0.000359578, No Iterations 2
GAMG:  Solving for p, Initial residual = 0.000887025, Final residual = 4.08998e-05, No Iterations 3
time step continuity errors : sum local = 7.67163e-12, global = -2.37591e-19, cumulative = -3.5286e-16
smoothSolver:  Solving for omega, Initial residual = 7.35358e-06, Final residual = 7.35358e-06, No Iterations 0
smoothSolver:  Solving for k, Initial residual = 1.02483e-05, Final residual = 4.48299e-06, No Iterations 1
ExecutionTime = 0.91 s  ClockTime = 7 s

Calculating grad(U).
Time = 815

smoothSolver:  Solving for Ux, Initial residual = 1.10174e-05, Final residual = 8.05954e-06, No Iterations 1
smoothSolver:  Solving for Uy, Initial residual = 0.00944993, Final residual = 0.000308863, No Iterations 2
GAMG:  Solving for p, Initial residual = 0.000986381, Final residual = 7.08025e-05, No Iterations 2
time step continuity errors : sum local = 1.28979e-11, global = -2.71032e-19, cumulative = -3.53131e-16
smoothSolver:  Solving for omega, Initial residual = 7.37105e-06, Final residual = 7.37105e-06, No Iterations 0
smoothSolver:  Solving for k, Initial residual = 1.04748e-05, Final residual = 4.58122e-06, No Iterations 1
ExecutionTime = 0.92 s  ClockTime = 7 s


SIMPLE solution converged in 815 iterations

--> FOAM Warning : 
    From function Foam::label Foam::sampledSets::classifyFields()
    in file sampledSet/sampledSets/sampledSetsGrouping.C at line 140
    Cannot find registered field matching R
Calculating grad(U).
End

