/*---------------------------------------------------------------------------*\
  =========                 |
  \\      /  F ield         | OpenFOAM: The Open Source CFD Toolbox
   \\    /   O peration     | Website:  https://openfoam.org
    \\  /    A nd           | Version:  7
     \\/     M anipulation  |
\*---------------------------------------------------------------------------*/
Build  : 7-3bcbaf946ae9
Exec   : simpleFoam
Date   : Jul 19 2022
Time   : 10:24:28
Host   : "Lubuntu"
PID    : 226732
I/O    : uncollated
Case   : /home/ensm_student/Documents/CFD/Rechnerubung/Week07/Parameterstudien_mit_RANS/data/raw/AOA_5
nProcs : 1
sigFpe : Enabling floating point exception trapping (FOAM_SIGFPE).
fileModificationChecking : Monitoring run-time modified files using timeStampMaster (fileModificationSkew 10)
allowSystemOperations : Allowing user-supplied system call operations

// * * * * * * * * * * * * * * * * * * * * * * * * * * * * * * * * * * * * * //
Create time

Using #calcEntry at line 21 in file "/home/ensm_student/Documents/CFD/Rechnerubung/Week07/Parameterstudien_mit_RANS/data/raw/AOA_5/system/controlDict.functions"
Using #codeStream with "/home/ensm_student/Documents/CFD/Rechnerubung/Week07/Parameterstudien_mit_RANS/data/raw/AOA_5/dynamicCode/platforms/linux64GccDPInt32Opt/lib/libcodeStream_fb605d079d6a3d7e9ea0db9ef40343a4d7abed92.so"
Using #calcEntry at line 27 in file "/home/ensm_student/Documents/CFD/Rechnerubung/Week07/Parameterstudien_mit_RANS/data/raw/AOA_5/system/controlDict.functions"
Using #codeStream with "/home/ensm_student/Documents/CFD/Rechnerubung/Week07/Parameterstudien_mit_RANS/data/raw/AOA_5/dynamicCode/platforms/linux64GccDPInt32Opt/lib/libcodeStream_8c6314a787acd8194b0cf8679b363212e627d5db.so"
Using #calcEntry at line 32 in file "/home/ensm_student/Documents/CFD/Rechnerubung/Week07/Parameterstudien_mit_RANS/data/raw/AOA_5/system/controlDict.functions"
Using #codeStream with "/home/ensm_student/Documents/CFD/Rechnerubung/Week07/Parameterstudien_mit_RANS/data/raw/AOA_5/dynamicCode/platforms/linux64GccDPInt32Opt/lib/libcodeStream_844c9c693dfc906dd46778e4cc636c418aa6a075.so"
Using #calcEntry at line 34 in file "/home/ensm_student/Documents/CFD/Rechnerubung/Week07/Parameterstudien_mit_RANS/data/raw/AOA_5/system/controlDict.functions"
Using #codeStream with "/home/ensm_student/Documents/CFD/Rechnerubung/Week07/Parameterstudien_mit_RANS/data/raw/AOA_5/dynamicCode/platforms/linux64GccDPInt32Opt/lib/libcodeStream_8b9df0e8700141fc89ea5daab014598dae76de38.so"
Using #calcEntry at line 22 in file "/home/ensm_student/Documents/CFD/Rechnerubung/Week07/Parameterstudien_mit_RANS/data/raw/AOA_5/system/controlDict.functions"
Using #codeStream with "/home/ensm_student/Documents/CFD/Rechnerubung/Week07/Parameterstudien_mit_RANS/data/raw/AOA_5/dynamicCode/platforms/linux64GccDPInt32Opt/lib/libcodeStream_093f32c277dc00476485e627766cbd6b5d9e43fa.so"
Using #calcEntry at line 22 in file "/home/ensm_student/Documents/CFD/Rechnerubung/Week07/Parameterstudien_mit_RANS/data/raw/AOA_5/system/controlDict.functions"
Using #codeStream with "/home/ensm_student/Documents/CFD/Rechnerubung/Week07/Parameterstudien_mit_RANS/data/raw/AOA_5/dynamicCode/platforms/linux64GccDPInt32Opt/lib/libcodeStream_f59218e0945e4449b3072665666b93da5092d175.so"
Using #calcEntry at line 23 in file "/home/ensm_student/Documents/CFD/Rechnerubung/Week07/Parameterstudien_mit_RANS/data/raw/AOA_5/system/controlDict.functions"
Using #calcEntry at line 23 in file "/home/ensm_student/Documents/CFD/Rechnerubung/Week07/Parameterstudien_mit_RANS/data/raw/AOA_5/system/controlDict.functions"
Using #codeStream with "/home/ensm_student/Documents/CFD/Rechnerubung/Week07/Parameterstudien_mit_RANS/data/raw/AOA_5/dynamicCode/platforms/linux64GccDPInt32Opt/lib/libcodeStream_4989d3520383bf982bffb46c7fa828ae60a4fdbb.so"
Create mesh for time = 0


SIMPLE: Convergence criteria found
        p: tolerance 0.01
        U: tolerance 0.02
        "(k|omega)": tolerance 0.001

Reading field p

Reading field U

Using #calcEntry at line 21 in file "/home/ensm_student/Documents/CFD/Rechnerubung/Week07/Parameterstudien_mit_RANS/data/raw/AOA_5/0/U"
Using #calcEntry at line 27 in file "/home/ensm_student/Documents/CFD/Rechnerubung/Week07/Parameterstudien_mit_RANS/data/raw/AOA_5/0/U"
Using #calcEntry at line 32 in file "/home/ensm_student/Documents/CFD/Rechnerubung/Week07/Parameterstudien_mit_RANS/data/raw/AOA_5/0/U"
Using #calcEntry at line 34 in file "/home/ensm_student/Documents/CFD/Rechnerubung/Week07/Parameterstudien_mit_RANS/data/raw/AOA_5/0/U"
Using #calcEntry at line 25 in file "/home/ensm_student/Documents/CFD/Rechnerubung/Week07/Parameterstudien_mit_RANS/data/raw/AOA_5/0/U"
Using #codeStream with "/home/ensm_student/Documents/CFD/Rechnerubung/Week07/Parameterstudien_mit_RANS/data/raw/AOA_5/dynamicCode/platforms/linux64GccDPInt32Opt/lib/libcodeStream_aeb7b8a148fa5cba652fa50c1687018dc3cb401f.so"
Creating new library in "dynamicCode/_aeb7b8a148fa5cba652fa50c1687018dc3cb401f/platforms/linux64GccDPInt32Opt/lib/libcodeStream_aeb7b8a148fa5cba652fa50c1687018dc3cb401f.so"
Invoking "wmake -s libso /home/ensm_student/Documents/CFD/Rechnerubung/Week07/Parameterstudien_mit_RANS/data/raw/AOA_5/dynamicCode/_aeb7b8a148fa5cba652fa50c1687018dc3cb401f"
wmake libso /home/ensm_student/Documents/CFD/Rechnerubung/Week07/Parameterstudien_mit_RANS/data/raw/AOA_5/dynamicCode/_aeb7b8a148fa5cba652fa50c1687018dc3cb401f
    wmkdep: codeStreamTemplate.C
    Ctoo: codeStreamTemplate.C
    ld: /home/ensm_student/Documents/CFD/Rechnerubung/Week07/Parameterstudien_mit_RANS/data/raw/AOA_5/dynamicCode/_aeb7b8a148fa5cba652fa50c1687018dc3cb401f/../platforms/linux64GccDPInt32Opt/lib/libcodeStream_aeb7b8a148fa5cba652fa50c1687018dc3cb401f.so
Using #calcEntry at line 25 in file "/home/ensm_student/Documents/CFD/Rechnerubung/Week07/Parameterstudien_mit_RANS/data/raw/AOA_5/0/U"
Using #codeStream with "/home/ensm_student/Documents/CFD/Rechnerubung/Week07/Parameterstudien_mit_RANS/data/raw/AOA_5/dynamicCode/platforms/linux64GccDPInt32Opt/lib/libcodeStream_19d80e323c878f509a72fa4cd86ce94d27b82deb.so"
Creating new library in "dynamicCode/_19d80e323c878f509a72fa4cd86ce94d27b82deb/platforms/linux64GccDPInt32Opt/lib/libcodeStream_19d80e323c878f509a72fa4cd86ce94d27b82deb.so"
Invoking "wmake -s libso /home/ensm_student/Documents/CFD/Rechnerubung/Week07/Parameterstudien_mit_RANS/data/raw/AOA_5/dynamicCode/_19d80e323c878f509a72fa4cd86ce94d27b82deb"
wmake libso /home/ensm_student/Documents/CFD/Rechnerubung/Week07/Parameterstudien_mit_RANS/data/raw/AOA_5/dynamicCode/_19d80e323c878f509a72fa4cd86ce94d27b82deb
    wmkdep: codeStreamTemplate.C
    Ctoo: codeStreamTemplate.C
    ld: /home/ensm_student/Documents/CFD/Rechnerubung/Week07/Parameterstudien_mit_RANS/data/raw/AOA_5/dynamicCode/_19d80e323c878f509a72fa4cd86ce94d27b82deb/../platforms/linux64GccDPInt32Opt/lib/libcodeStream_19d80e323c878f509a72fa4cd86ce94d27b82deb.so
Reading/calculating face flux field phi

Selecting incompressible transport model Newtonian
Selecting turbulence model type RAS
Selecting RAS turbulence model kOmegaSST
Using #calcEntry at line 21 in file "/home/ensm_student/Documents/CFD/Rechnerubung/Week07/Parameterstudien_mit_RANS/data/raw/AOA_5/0/nut"
Using #calcEntry at line 27 in file "/home/ensm_student/Documents/CFD/Rechnerubung/Week07/Parameterstudien_mit_RANS/data/raw/AOA_5/0/nut"
Using #calcEntry at line 32 in file "/home/ensm_student/Documents/CFD/Rechnerubung/Week07/Parameterstudien_mit_RANS/data/raw/AOA_5/0/nut"
Using #calcEntry at line 34 in file "/home/ensm_student/Documents/CFD/Rechnerubung/Week07/Parameterstudien_mit_RANS/data/raw/AOA_5/0/nut"
Selecting patchDistMethod meshWave
Using #calcEntry at line 21 in file "/home/ensm_student/Documents/CFD/Rechnerubung/Week07/Parameterstudien_mit_RANS/data/raw/AOA_5/0/k"
Using #calcEntry at line 27 in file "/home/ensm_student/Documents/CFD/Rechnerubung/Week07/Parameterstudien_mit_RANS/data/raw/AOA_5/0/k"
Using #calcEntry at line 32 in file "/home/ensm_student/Documents/CFD/Rechnerubung/Week07/Parameterstudien_mit_RANS/data/raw/AOA_5/0/k"
Using #calcEntry at line 34 in file "/home/ensm_student/Documents/CFD/Rechnerubung/Week07/Parameterstudien_mit_RANS/data/raw/AOA_5/0/k"
Using #calcEntry at line 21 in file "/home/ensm_student/Documents/CFD/Rechnerubung/Week07/Parameterstudien_mit_RANS/data/raw/AOA_5/0/omega"
Using #calcEntry at line 27 in file "/home/ensm_student/Documents/CFD/Rechnerubung/Week07/Parameterstudien_mit_RANS/data/raw/AOA_5/0/omega"
Using #calcEntry at line 32 in file "/home/ensm_student/Documents/CFD/Rechnerubung/Week07/Parameterstudien_mit_RANS/data/raw/AOA_5/0/omega"
Using #calcEntry at line 34 in file "/home/ensm_student/Documents/CFD/Rechnerubung/Week07/Parameterstudien_mit_RANS/data/raw/AOA_5/0/omega"
RAS
{
    RASModel        kOmegaSST;
    turbulence      on;
    printCoeffs     on;
    alphaK1         0.85;
    alphaK2         1;
    alphaOmega1     0.5;
    alphaOmega2     0.856;
    gamma1          0.555556;
    gamma2          0.44;
    beta1           0.075;
    beta2           0.0828;
    betaStar        0.09;
    a1              0.31;
    b1              1;
    c1              10;
    F3              false;
}

No MRF models present

No finite volume options present

Starting time loop

--> FOAM Warning : 
    From function bool Foam::functionObjectList::read()
    in file db/functionObjects/functionObjectList/functionObjectList.C at line 682
    Reading "/home/ensm_student/Documents/CFD/Rechnerubung/Week07/Parameterstudien_mit_RANS/data/raw/AOA_5/system/controlDict" from line 18 to line 17
    Entry mag_U_infty is not a dictionary
--> FOAM Warning : 
    From function bool Foam::functionObjectList::read()
    in file db/functionObjects/functionObjectList/functionObjectList.C at line 682
    Reading "/home/ensm_student/Documents/CFD/Rechnerubung/Week07/Parameterstudien_mit_RANS/data/raw/AOA_5/system/controlDict" from line 18 to line 17
    Entry alpha_DEG is not a dictionary
--> FOAM Warning : 
    From function bool Foam::functionObjectList::read()
    in file db/functionObjects/functionObjectList/functionObjectList.C at line 682
    Reading "/home/ensm_student/Documents/CFD/Rechnerubung/Week07/Parameterstudien_mit_RANS/data/raw/AOA_5/system/controlDict" from line 18 to line 17
    Entry alpha_RAD is not a dictionary
--> FOAM Warning : 
    From function bool Foam::functionObjectList::read()
    in file db/functionObjects/functionObjectList/functionObjectList.C at line 682
    Reading "/home/ensm_student/Documents/CFD/Rechnerubung/Week07/Parameterstudien_mit_RANS/data/raw/AOA_5/system/controlDict" from line 18 to line 17
    Entry intensity is not a dictionary
--> FOAM Warning : 
    From function bool Foam::functionObjectList::read()
    in file db/functionObjects/functionObjectList/functionObjectList.C at line 682
    Reading "/home/ensm_student/Documents/CFD/Rechnerubung/Week07/Parameterstudien_mit_RANS/data/raw/AOA_5/system/controlDict" from line 18 to line 17
    Entry k_inlet is not a dictionary
--> FOAM Warning : 
    From function bool Foam::functionObjectList::read()
    in file db/functionObjects/functionObjectList/functionObjectList.C at line 682
    Reading "/home/ensm_student/Documents/CFD/Rechnerubung/Week07/Parameterstudien_mit_RANS/data/raw/AOA_5/system/controlDict" from line 18 to line 17
    Entry beta_1 is not a dictionary
--> FOAM Warning : 
    From function bool Foam::functionObjectList::read()
    in file db/functionObjects/functionObjectList/functionObjectList.C at line 682
    Reading "/home/ensm_student/Documents/CFD/Rechnerubung/Week07/Parameterstudien_mit_RANS/data/raw/AOA_5/system/controlDict" from line 18 to line 17
    Entry nu is not a dictionary
--> FOAM Warning : 
    From function bool Foam::functionObjectList::read()
    in file db/functionObjects/functionObjectList/functionObjectList.C at line 682
    Reading "/home/ensm_student/Documents/CFD/Rechnerubung/Week07/Parameterstudien_mit_RANS/data/raw/AOA_5/system/controlDict" from line 18 to line 17
    Entry del_y_1 is not a dictionary
--> FOAM Warning : 
    From function bool Foam::functionObjectList::read()
    in file db/functionObjects/functionObjectList/functionObjectList.C at line 682
    Reading "/home/ensm_student/Documents/CFD/Rechnerubung/Week07/Parameterstudien_mit_RANS/data/raw/AOA_5/system/controlDict" from line 18 to line 17
    Entry omega is not a dictionary
--> FOAM Warning : 
    From function bool Foam::functionObjectList::read()
    in file db/functionObjects/functionObjectList/functionObjectList.C at line 682
    Reading "/home/ensm_student/Documents/CFD/Rechnerubung/Week07/Parameterstudien_mit_RANS/data/raw/AOA_5/system/controlDict" from line 18 to line 17
    Entry nut is not a dictionary
--> FOAM Warning : 
    From function bool Foam::functionObjectList::read()
    in file db/functionObjects/functionObjectList/functionObjectList.C at line 682
    Reading "/home/ensm_student/Documents/CFD/Rechnerubung/Week07/Parameterstudien_mit_RANS/data/raw/AOA_5/system/controlDict" from line 18 to line 17
    Entry x_ is not a dictionary
--> FOAM Warning : 
    From function bool Foam::functionObjectList::read()
    in file db/functionObjects/functionObjectList/functionObjectList.C at line 682
    Reading "/home/ensm_student/Documents/CFD/Rechnerubung/Week07/Parameterstudien_mit_RANS/data/raw/AOA_5/system/controlDict" from line 18 to line 17
    Entry y_ is not a dictionary
--> FOAM Warning : 
    From function void Foam::timeControl::read(const Foam::dictionary&)
    in file db/functionObjects/timeControl/timeControl.C at line 89
    Reading "/home/ensm_student/Documents/CFD/Rechnerubung/Week07/Parameterstudien_mit_RANS/data/raw/AOA_5/system/controlDict.functions.forceCoeffs_object" from line 28 to line 48
    Using deprecated 'outputControl'
    Please use 'writeControl' with 'writeInterval'
forces forceCoeffs_object:
    Not including porosity effects
forceCoeffs forceCoeffs_object:
    Not including porosity effects
--> FOAM Warning : 
    From function void Foam::timeControl::read(const Foam::dictionary&)
    in file db/functionObjects/timeControl/timeControl.C at line 89
    Reading "/home/ensm_student/Documents/CFD/Rechnerubung/Week07/Parameterstudien_mit_RANS/data/raw/AOA_5/system/controlDict.functions.residuals" from line 19 to line 31
    Using deprecated 'outputControl'
    Please use 'writeControl' with 'writeInterval'
Time = 1

smoothSolver:  Solving for Ux, Initial residual = 1, Final residual = 0.0871755, No Iterations 20
smoothSolver:  Solving for Uy, Initial residual = 1, Final residual = 0.0875349, No Iterations 20
GAMG:  Solving for p, Initial residual = 1, Final residual = 0.00922591, No Iterations 26
time step continuity errors : sum local = 2.73501e-05, global = -8.95128e-06, cumulative = -8.95128e-06
smoothSolver:  Solving for omega, Initial residual = 0.00139541, Final residual = 0.000123252, No Iterations 3
bounding omega, min: -9.6369 max: 1873.49 average: 22.3246
smoothSolver:  Solving for k, Initial residual = 1, Final residual = 0.0553075, No Iterations 3
ExecutionTime = 0.11 s  ClockTime = 2 s

forceCoeffs forceCoeffs_object write:
    Cm    = -0.131128
    Cd    = 0.639936
    Cl    = 0.166819
    Cl(f) = -0.0477189
    Cl(r) = 0.214538

Time = 2

smoothSolver:  Solving for Ux, Initial residual = 0.0143501, Final residual = 0.00130175, No Iterations 13
smoothSolver:  Solving for Uy, Initial residual = 0.239214, Final residual = 0.0220447, No Iterations 13
GAMG:  Solving for p, Initial residual = 0.158747, Final residual = 0.00125164, No Iterations 18
time step continuity errors : sum local = 7.61962e-05, global = -2.46302e-05, cumulative = -3.35815e-05
smoothSolver:  Solving for omega, Initial residual = 0.00276466, Final residual = 0.000176997, No Iterations 3
bounding omega, min: -25.2041 max: 7591 average: 32.0518
smoothSolver:  Solving for k, Initial residual = 0.227034, Final residual = 0.0149209, No Iterations 3
ExecutionTime = 0.14 s  ClockTime = 2 s

forceCoeffs forceCoeffs_object write:
    Cm    = -0.0815754
    Cd    = 0.375456
    Cl    = 0.122861
    Cl(f) = -0.0201448
    Cl(r) = 0.143006

Time = 3

smoothSolver:  Solving for Ux, Initial residual = 0.00719031, Final residual = 0.000646161, No Iterations 11
smoothSolver:  Solving for Uy, Initial residual = 0.0897851, Final residual = 0.00787176, No Iterations 11
GAMG:  Solving for p, Initial residual = 0.0820455, Final residual = 0.000647074, No Iterations 20
time step continuity errors : sum local = 6.13393e-05, global = -1.8097e-05, cumulative = -5.16785e-05
smoothSolver:  Solving for omega, Initial residual = 0.0027178, Final residual = 0.000195245, No Iterations 3
smoothSolver:  Solving for k, Initial residual = 0.0676739, Final residual = 0.00458461, No Iterations 3
ExecutionTime = 0.17 s  ClockTime = 2 s

forceCoeffs forceCoeffs_object write:
    Cm    = -0.0877687
    Cd    = 0.357788
    Cl    = 0.0542969
    Cl(f) = -0.0606202
    Cl(r) = 0.114917

Time = 4

smoothSolver:  Solving for Ux, Initial residual = 0.00563297, Final residual = 0.000492388, No Iterations 10
smoothSolver:  Solving for Uy, Initial residual = 0.0402909, Final residual = 0.00360294, No Iterations 11
GAMG:  Solving for p, Initial residual = 0.119172, Final residual = 0.00102343, No Iterations 26
time step continuity errors : sum local = 5.05067e-05, global = -1.9924e-05, cumulative = -7.16025e-05
smoothSolver:  Solving for omega, Initial residual = 0.00156252, Final residual = 9.2516e-05, No Iterations 3
smoothSolver:  Solving for k, Initial residual = 0.0242789, Final residual = 0.00164289, No Iterations 3
ExecutionTime = 0.21 s  ClockTime = 2 s

forceCoeffs forceCoeffs_object write:
    Cm    = -0.0818035
    Cd    = 0.368265
    Cl    = 0.0105846
    Cl(f) = -0.0765112
    Cl(r) = 0.0870958

Time = 5

smoothSolver:  Solving for Ux, Initial residual = 0.00436571, Final residual = 0.000397439, No Iterations 9
smoothSolver:  Solving for Uy, Initial residual = 0.0269546, Final residual = 0.0025803, No Iterations 10
GAMG:  Solving for p, Initial residual = 0.0964324, Final residual = 0.000925903, No Iterations 21
time step continuity errors : sum local = 4.71703e-05, global = 2.64812e-05, cumulative = -4.51214e-05
smoothSolver:  Solving for omega, Initial residual = 0.00120417, Final residual = 4.75026e-05, No Iterations 3
smoothSolver:  Solving for k, Initial residual = 0.00771434, Final residual = 0.000524822, No Iterations 3
ExecutionTime = 0.24 s  ClockTime = 2 s

forceCoeffs forceCoeffs_object write:
    Cm    = -0.0781897
    Cd    = 0.371293
    Cl    = -0.00992353
    Cl(f) = -0.0831515
    Cl(r) = 0.073228

Time = 6

smoothSolver:  Solving for Ux, Initial residual = 0.00360221, Final residual = 0.000347828, No Iterations 8
smoothSolver:  Solving for Uy, Initial residual = 0.0176142, Final residual = 0.00169848, No Iterations 11
GAMG:  Solving for p, Initial residual = 0.107771, Final residual = 0.000872133, No Iterations 15
time step continuity errors : sum local = 3.43394e-05, global = 1.65164e-05, cumulative = -2.8605e-05
smoothSolver:  Solving for omega, Initial residual = 0.00111847, Final residual = 9.29799e-05, No Iterations 2
smoothSolver:  Solving for k, Initial residual = 0.0038791, Final residual = 0.000246872, No Iterations 3
ExecutionTime = 0.26 s  ClockTime = 2 s

forceCoeffs forceCoeffs_object write:
    Cm    = -0.089816
    Cd    = 0.390899
    Cl    = -0.0149385
    Cl(f) = -0.0972853
    Cl(r) = 0.0823468

Time = 7

smoothSolver:  Solving for Ux, Initial residual = 0.00337676, Final residual = 0.000325607, No Iterations 8
smoothSolver:  Solving for Uy, Initial residual = 0.0144504, Final residual = 0.00127035, No Iterations 12
GAMG:  Solving for p, Initial residual = 0.111333, Final residual = 0.000946458, No Iterations 16
time step continuity errors : sum local = 3.18808e-05, global = -1.75117e-05, cumulative = -4.61167e-05
smoothSolver:  Solving for omega, Initial residual = 0.000774711, Final residual = 7.30598e-05, No Iterations 2
smoothSolver:  Solving for k, Initial residual = 0.00254583, Final residual = 0.000161285, No Iterations 3
ExecutionTime = 0.29 s  ClockTime = 2 s

forceCoeffs forceCoeffs_object write:
    Cm    = -0.103189
    Cd    = 0.426257
    Cl    = -0.0132059
    Cl(f) = -0.109792
    Cl(r) = 0.0965859

Time = 8

smoothSolver:  Solving for Ux, Initial residual = 0.00314833, Final residual = 0.000279065, No Iterations 9
smoothSolver:  Solving for Uy, Initial residual = 0.012112, Final residual = 0.00114296, No Iterations 12
GAMG:  Solving for p, Initial residual = 0.125738, Final residual = 0.0011242, No Iterations 17
time step continuity errors : sum local = 2.74539e-05, global = 1.21611e-05, cumulative = -3.39556e-05
smoothSolver:  Solving for omega, Initial residual = 0.000486763, Final residual = 2.06081e-05, No Iterations 3
smoothSolver:  Solving for k, Initial residual = 0.0020632, Final residual = 0.000128456, No Iterations 3
ExecutionTime = 0.32 s  ClockTime = 2 s

forceCoeffs forceCoeffs_object write:
    Cm    = -0.119604
    Cd    = 0.466652
    Cl    = -0.0107608
    Cl(f) = -0.124985
    Cl(r) = 0.114224

Time = 9

smoothSolver:  Solving for Ux, Initial residual = 0.00332818, Final residual = 0.00031782, No Iterations 8
smoothSolver:  Solving for Uy, Initial residual = 0.0109695, Final residual = 0.00102376, No Iterations 12
GAMG:  Solving for p, Initial residual = 0.11846, Final residual = 0.00107759, No Iterations 17
time step continuity errors : sum local = 2.4974e-05, global = 8.39613e-06, cumulative = -2.55595e-05
smoothSolver:  Solving for omega, Initial residual = 0.000353485, Final residual = 1.50709e-05, No Iterations 3
smoothSolver:  Solving for k, Initial residual = 0.00178072, Final residual = 0.000114537, No Iterations 3
ExecutionTime = 0.34 s  ClockTime = 2 s

forceCoeffs forceCoeffs_object write:
    Cm    = -0.137758
    Cd    = 0.519588
    Cl    = -0.0110015
    Cl(f) = -0.143259
    Cl(r) = 0.132257

Time = 10

smoothSolver:  Solving for Ux, Initial residual = 0.00334508, Final residual = 0.000306134, No Iterations 9
smoothSolver:  Solving for Uy, Initial residual = 0.0101147, Final residual = 0.000962167, No Iterations 12
GAMG:  Solving for p, Initial residual = 0.116361, Final residual = 0.00113257, No Iterations 18
time step continuity errors : sum local = 2.63363e-05, global = -1.29532e-05, cumulative = -3.85127e-05
smoothSolver:  Solving for omega, Initial residual = 0.00031731, Final residual = 1.36062e-05, No Iterations 3
smoothSolver:  Solving for k, Initial residual = 0.00144566, Final residual = 8.51733e-05, No Iterations 3
ExecutionTime = 0.37 s  ClockTime = 2 s

forceCoeffs forceCoeffs_object write:
    Cm    = -0.151978
    Cd    = 0.56561
    Cl    = -0.0137273
    Cl(f) = -0.158842
    Cl(r) = 0.145115

Time = 11

smoothSolver:  Solving for Ux, Initial residual = 0.00357128, Final residual = 0.00031771, No Iterations 9
smoothSolver:  Solving for Uy, Initial residual = 0.00979882, Final residual = 0.000895623, No Iterations 12
GAMG:  Solving for p, Initial residual = 0.104979, Final residual = 0.000966914, No Iterations 17
time step continuity errors : sum local = 2.32927e-05, global = 7.5851e-06, cumulative = -3.09276e-05
smoothSolver:  Solving for omega, Initial residual = 0.000287371, Final residual = 1.27404e-05, No Iterations 3
smoothSolver:  Solving for k, Initial residual = 0.00121672, Final residual = 6.97509e-05, No Iterations 3
ExecutionTime = 0.4 s  ClockTime = 2 s

forceCoeffs forceCoeffs_object write:
    Cm    = -0.16353
    Cd    = 0.605126
    Cl    = -0.0176991
    Cl(f) = -0.17238
    Cl(r) = 0.154681

Time = 12

smoothSolver:  Solving for Ux, Initial residual = 0.00355598, Final residual = 0.000342406, No Iterations 9
smoothSolver:  Solving for Uy, Initial residual = 0.00974713, Final residual = 0.000964148, No Iterations 11
GAMG:  Solving for p, Initial residual = 0.108029, Final residual = 0.000877413, No Iterations 15
time step continuity errors : sum local = 2.09907e-05, global = 6.51301e-06, cumulative = -2.44146e-05
smoothSolver:  Solving for omega, Initial residual = 0.000324966, Final residual = 3.08554e-05, No Iterations 2
smoothSolver:  Solving for k, Initial residual = 0.00106351, Final residual = 5.51819e-05, No Iterations 3
ExecutionTime = 0.43 s  ClockTime = 2 s

forceCoeffs forceCoeffs_object write:
    Cm    = -0.169627
    Cd    = 0.634918
    Cl    = -0.0225406
    Cl(f) = -0.180898
    Cl(r) = 0.158357

Time = 13

smoothSolver:  Solving for Ux, Initial residual = 0.00364507, Final residual = 0.000362511, No Iterations 9
smoothSolver:  Solving for Uy, Initial residual = 0.00952802, Final residual = 0.0009043, No Iterations 11
GAMG:  Solving for p, Initial residual = 0.104913, Final residual = 0.000761024, No Iterations 15
time step continuity errors : sum local = 1.77541e-05, global = 4.32711e-06, cumulative = -2.00875e-05
smoothSolver:  Solving for omega, Initial residual = 0.000359435, Final residual = 2.94722e-05, No Iterations 2
smoothSolver:  Solving for k, Initial residual = 0.0009405, Final residual = 4.49946e-05, No Iterations 3
ExecutionTime = 0.45 s  ClockTime = 2 s

forceCoeffs forceCoeffs_object write:
    Cm    = -0.172985
    Cd    = 0.650753
    Cl    = -0.026604
    Cl(f) = -0.186287
    Cl(r) = 0.159683

Time = 14

smoothSolver:  Solving for Ux, Initial residual = 0.00366067, Final residual = 0.000338729, No Iterations 10
smoothSolver:  Solving for Uy, Initial residual = 0.00957861, Final residual = 0.00084289, No Iterations 11
GAMG:  Solving for p, Initial residual = 0.077702, Final residual = 0.000585911, No Iterations 17
time step continuity errors : sum local = 1.794e-05, global = 4.93493e-06, cumulative = -1.51526e-05
smoothSolver:  Solving for omega, Initial residual = 0.000328052, Final residual = 3.07044e-05, No Iterations 2
smoothSolver:  Solving for k, Initial residual = 0.000890358, Final residual = 4.14662e-05, No Iterations 3
ExecutionTime = 0.48 s  ClockTime = 2 s

forceCoeffs forceCoeffs_object write:
    Cm    = -0.1736
    Cd    = 0.657497
    Cl    = -0.0295246
    Cl(f) = -0.188363
    Cl(r) = 0.158838

Time = 15

smoothSolver:  Solving for Ux, Initial residual = 0.00364634, Final residual = 0.000352719, No Iterations 10
smoothSolver:  Solving for Uy, Initial residual = 0.00961678, Final residual = 0.000887424, No Iterations 10
GAMG:  Solving for p, Initial residual = 0.054295, Final residual = 0.00054025, No Iterations 20
time step continuity errors : sum local = 2.27857e-05, global = -1.19066e-05, cumulative = -2.70592e-05
smoothSolver:  Solving for omega, Initial residual = 0.000316691, Final residual = 2.76723e-05, No Iterations 2
smoothSolver:  Solving for k, Initial residual = 0.000848472, Final residual = 3.52839e-05, No Iterations 3
ExecutionTime = 0.51 s  ClockTime = 2 s

forceCoeffs forceCoeffs_object write:
    Cm    = -0.171696
    Cd    = 0.652541
    Cl    = -0.0309452
    Cl(f) = -0.187169
    Cl(r) = 0.156223

Time = 16

smoothSolver:  Solving for Ux, Initial residual = 0.00359054, Final residual = 0.000355425, No Iterations 10
smoothSolver:  Solving for Uy, Initial residual = 0.0099544, Final residual = 0.000965618, No Iterations 9
GAMG:  Solving for p, Initial residual = 0.0395491, Final residual = 0.000392822, No Iterations 21
time step continuity errors : sum local = 2.21774e-05, global = 9.49787e-06, cumulative = -1.75613e-05
smoothSolver:  Solving for omega, Initial residual = 0.000299245, Final residual = 2.64036e-05, No Iterations 2
smoothSolver:  Solving for k, Initial residual = 0.000810132, Final residual = 3.38451e-05, No Iterations 3
ExecutionTime = 0.54 s  ClockTime = 2 s

forceCoeffs forceCoeffs_object write:
    Cm    = -0.167273
    Cd    = 0.638197
    Cl    = -0.0307815
    Cl(f) = -0.182664
    Cl(r) = 0.151882

Time = 17

smoothSolver:  Solving for Ux, Initial residual = 0.00350123, Final residual = 0.00030868, No Iterations 11
smoothSolver:  Solving for Uy, Initial residual = 0.0106638, Final residual = 0.00097554, No Iterations 9
GAMG:  Solving for p, Initial residual = 0.0304297, Final residual = 0.000286294, No Iterations 21
time step continuity errors : sum local = 2.03655e-05, global = 9.9775e-06, cumulative = -7.5838e-06
smoothSolver:  Solving for omega, Initial residual = 0.000287997, Final residual = 2.46664e-05, No Iterations 2
smoothSolver:  Solving for k, Initial residual = 0.000768776, Final residual = 3.22499e-05, No Iterations 3
ExecutionTime = 0.57 s  ClockTime = 2 s

forceCoeffs forceCoeffs_object write:
    Cm    = -0.159977
    Cd    = 0.612924
    Cl    = -0.028909
    Cl(f) = -0.174431
    Cl(r) = 0.145522

Time = 18

smoothSolver:  Solving for Ux, Initial residual = 0.0034356, Final residual = 0.000307236, No Iterations 11
smoothSolver:  Solving for Uy, Initial residual = 0.0119723, Final residual = 0.0010717, No Iterations 9
GAMG:  Solving for p, Initial residual = 0.0255069, Final residual = 0.000203739, No Iterations 21
time step continuity errors : sum local = 1.77998e-05, global = 8.65938e-06, cumulative = 1.07558e-06
smoothSolver:  Solving for omega, Initial residual = 0.000271986, Final residual = 2.33578e-05, No Iterations 2
smoothSolver:  Solving for k, Initial residual = 0.000765832, Final residual = 3.1876e-05, No Iterations 3
ExecutionTime = 0.6 s  ClockTime = 2 s

forceCoeffs forceCoeffs_object write:
    Cm    = -0.150453
    Cd    = 0.580066
    Cl    = -0.0256945
    Cl(f) = -0.1633
    Cl(r) = 0.137606

Time = 19

smoothSolver:  Solving for Ux, Initial residual = 0.00342723, Final residual = 0.000311588, No Iterations 11
smoothSolver:  Solving for Uy, Initial residual = 0.0137983, Final residual = 0.00126813, No Iterations 9
GAMG:  Solving for p, Initial residual = 0.0219068, Final residual = 0.000183304, No Iterations 21
time step continuity errors : sum local = 1.92223e-05, global = 8.56553e-06, cumulative = 9.64111e-06
smoothSolver:  Solving for omega, Initial residual = 0.000267827, Final residual = 2.25562e-05, No Iterations 2
smoothSolver:  Solving for k, Initial residual = 0.000767543, Final residual = 3.14354e-05, No Iterations 3
ExecutionTime = 0.63 s  ClockTime = 2 s

forceCoeffs forceCoeffs_object write:
    Cm    = -0.134855
    Cd    = 0.532997
    Cl    = -0.021087
    Cl(f) = -0.145398
    Cl(r) = 0.124311

Time = 20

smoothSolver:  Solving for Ux, Initial residual = 0.00357752, Final residual = 0.000318425, No Iterations 11
smoothSolver:  Solving for Uy, Initial residual = 0.017071, Final residual = 0.0016366, No Iterations 9
GAMG:  Solving for p, Initial residual = 0.0183293, Final residual = 0.000158135, No Iterations 21
time step continuity errors : sum local = 1.95729e-05, global = 8.14565e-06, cumulative = 1.77868e-05
smoothSolver:  Solving for omega, Initial residual = 0.000260668, Final residual = 2.42472e-05, No Iterations 2
smoothSolver:  Solving for k, Initial residual = 0.00076434, Final residual = 7.47084e-05, No Iterations 2
ExecutionTime = 0.66 s  ClockTime = 2 s

forceCoeffs forceCoeffs_object write:
    Cm    = -0.113822
    Cd    = 0.474382
    Cl    = -0.0152757
    Cl(f) = -0.12146
    Cl(r) = 0.106185

Time = 21

smoothSolver:  Solving for Ux, Initial residual = 0.0036259, Final residual = 0.000329865, No Iterations 11
smoothSolver:  Solving for Uy, Initial residual = 0.0234281, Final residual = 0.00204731, No Iterations 10
GAMG:  Solving for p, Initial residual = 0.0164865, Final residual = 0.000158051, No Iterations 15
time step continuity errors : sum local = 2.30737e-05, global = 4.33562e-06, cumulative = 2.21224e-05
smoothSolver:  Solving for omega, Initial residual = 0.000268113, Final residual = 2.58181e-05, No Iterations 2
smoothSolver:  Solving for k, Initial residual = 0.000770623, Final residual = 7.62266e-05, No Iterations 2
ExecutionTime = 0.68 s  ClockTime = 2 s

forceCoeffs forceCoeffs_object write:
    Cm    = -0.0854726
    Cd    = 0.402726
    Cl    = -0.00878444
    Cl(f) = -0.0898648
    Cl(r) = 0.0810804

Time = 22

smoothSolver:  Solving for Ux, Initial residual = 0.00377817, Final residual = 0.000340143, No Iterations 11
smoothSolver:  Solving for Uy, Initial residual = 0.0395763, Final residual = 0.00368503, No Iterations 10
GAMG:  Solving for p, Initial residual = 0.0148911, Final residual = 0.00014551, No Iterations 19
time step continuity errors : sum local = 2.44219e-05, global = -7.59095e-06, cumulative = 1.45314e-05
smoothSolver:  Solving for omega, Initial residual = 0.000274295, Final residual = 2.38833e-05, No Iterations 2
smoothSolver:  Solving for k, Initial residual = 0.000773108, Final residual = 7.56073e-05, No Iterations 2
ExecutionTime = 0.71 s  ClockTime = 2 s

forceCoeffs forceCoeffs_object write:
    Cm    = -0.0507688
    Cd    = 0.321237
    Cl    = -0.00231673
    Cl(f) = -0.0519271
    Cl(r) = 0.0496104

Time = 23

smoothSolver:  Solving for Ux, Initial residual = 0.00399716, Final residual = 0.000347336, No Iterations 11
smoothSolver:  Solving for Uy, Initial residual = 0.0654034, Final residual = 0.00645113, No Iterations 10
GAMG:  Solving for p, Initial residual = 0.0131693, Final residual = 0.000112966, No Iterations 19
time step continuity errors : sum local = 2.14824e-05, global = -5.62032e-06, cumulative = 8.91111e-06
smoothSolver:  Solving for omega, Initial residual = 0.000272974, Final residual = 2.51131e-05, No Iterations 2
smoothSolver:  Solving for k, Initial residual = 0.000745708, Final residual = 2.85427e-05, No Iterations 3
ExecutionTime = 0.73 s  ClockTime = 2 s

forceCoeffs forceCoeffs_object write:
    Cm    = -0.0105001
    Cd    = 0.232606
    Cl    = 0.00357644
    Cl(f) = -0.00871187
    Cl(r) = 0.0122883

Time = 24

smoothSolver:  Solving for Ux, Initial residual = 0.00423876, Final residual = 0.000404477, No Iterations 10
smoothSolver:  Solving for Uy, Initial residual = 0.0301038, Final residual = 0.00268864, No Iterations 11
GAMG:  Solving for p, Initial residual = 0.0117437, Final residual = 0.000104809, No Iterations 21
time step continuity errors : sum local = 2.19785e-05, global = -9.97823e-06, cumulative = -1.06712e-06
smoothSolver:  Solving for omega, Initial residual = 0.000274056, Final residual = 2.57041e-05, No Iterations 2
smoothSolver:  Solving for k, Initial residual = 0.000721615, Final residual = 7.06555e-05, No Iterations 2
ExecutionTime = 0.76 s  ClockTime = 2 s

forceCoeffs forceCoeffs_object write:
    Cm    = 0.034658
    Cd    = 0.137801
    Cl    = 0.00858195
    Cl(f) = 0.0389489
    Cl(r) = -0.030367

Time = 25

smoothSolver:  Solving for Ux, Initial residual = 0.00455779, Final residual = 0.00041013, No Iterations 10
smoothSolver:  Solving for Uy, Initial residual = 0.0200771, Final residual = 0.00179903, No Iterations 11
GAMG:  Solving for p, Initial residual = 0.0114341, Final residual = 9.82251e-05, No Iterations 22
time step continuity errors : sum local = 2.18949e-05, global = 1.09891e-05, cumulative = 9.92194e-06
smoothSolver:  Solving for omega, Initial residual = 0.000253765, Final residual = 2.39863e-05, No Iterations 2
smoothSolver:  Solving for k, Initial residual = 0.00070153, Final residual = 6.547e-05, No Iterations 2
ExecutionTime = 0.79 s  ClockTime = 3 s

forceCoeffs forceCoeffs_object write:
    Cm    = 0.0765298
    Cd    = 0.0549451
    Cl    = 0.0113475
    Cl(f) = 0.0822035
    Cl(r) = -0.070856

Time = 26

smoothSolver:  Solving for Ux, Initial residual = 0.00489424, Final residual = 0.000484964, No Iterations 9
smoothSolver:  Solving for Uy, Initial residual = 0.0156498, Final residual = 0.00137438, No Iterations 11
GAMG:  Solving for p, Initial residual = 0.0118475, Final residual = 0.000111907, No Iterations 20
time step continuity errors : sum local = 2.51897e-05, global = 1.41501e-05, cumulative = 2.40721e-05
smoothSolver:  Solving for omega, Initial residual = 0.000224231, Final residual = 1.99637e-05, No Iterations 2
smoothSolver:  Solving for k, Initial residual = 0.000657406, Final residual = 5.69885e-05, No Iterations 2
ExecutionTime = 0.82 s  ClockTime = 3 s

forceCoeffs forceCoeffs_object write:
    Cm    = 0.107606
    Cd    = -0.0040573
    Cl    = 0.0116215
    Cl(f) = 0.113417
    Cl(r) = -0.101795

Time = 27

smoothSolver:  Solving for Ux, Initial residual = 0.0053607, Final residual = 0.000489076, No Iterations 9
smoothSolver:  Solving for Uy, Initial residual = 0.0134791, Final residual = 0.00130878, No Iterations 10
GAMG:  Solving for p, Initial residual = 0.0125051, Final residual = 0.000110421, No Iterations 18
time step continuity errors : sum local = 2.36484e-05, global = 1.36349e-05, cumulative = 3.77069e-05
smoothSolver:  Solving for omega, Initial residual = 0.000198383, Final residual = 1.78764e-05, No Iterations 2
smoothSolver:  Solving for k, Initial residual = 0.000613099, Final residual = 5.23394e-05, No Iterations 2
bounding k, min: -0.0358592 max: 6.18315 average: 0.0761502
ExecutionTime = 0.85 s  ClockTime = 3 s

forceCoeffs forceCoeffs_object write:
    Cm    = 0.121678
    Cd    = -0.0275779
    Cl    = 0.00961569
    Cl(f) = 0.126486
    Cl(r) = -0.11687

Time = 28

smoothSolver:  Solving for Ux, Initial residual = 0.00597746, Final residual = 0.000562287, No Iterations 8
smoothSolver:  Solving for Uy, Initial residual = 0.0126328, Final residual = 0.00116273, No Iterations 10
GAMG:  Solving for p, Initial residual = 0.0143603, Final residual = 0.000131574, No Iterations 18
time step continuity errors : sum local = 2.55927e-05, global = 1.05893e-05, cumulative = 4.82962e-05
smoothSolver:  Solving for omega, Initial residual = 0.000186197, Final residual = 1.73491e-05, No Iterations 2
smoothSolver:  Solving for k, Initial residual = 0.000618393, Final residual = 5.63122e-05, No Iterations 2
ExecutionTime = 0.88 s  ClockTime = 3 s

forceCoeffs forceCoeffs_object write:
    Cm    = 0.11328
    Cd    = -0.00673495
    Cl    = 0.00553773
    Cl(f) = 0.116049
    Cl(r) = -0.110511

Time = 29

smoothSolver:  Solving for Ux, Initial residual = 0.00700406, Final residual = 0.00069624, No Iterations 7
smoothSolver:  Solving for Uy, Initial residual = 0.0129376, Final residual = 0.00110477, No Iterations 10
GAMG:  Solving for p, Initial residual = 0.0161394, Final residual = 0.000138039, No Iterations 19
time step continuity errors : sum local = 2.26401e-05, global = -8.2713e-06, cumulative = 4.00249e-05
smoothSolver:  Solving for omega, Initial residual = 0.000183105, Final residual = 1.75899e-05, No Iterations 2
smoothSolver:  Solving for k, Initial residual = 0.000625367, Final residual = 5.9418e-05, No Iterations 2
ExecutionTime = 0.91 s  ClockTime = 3 s

forceCoeffs forceCoeffs_object write:
    Cm    = 0.0918222
    Cd    = 0.0417552
    Cl    = -0.000204759
    Cl(f) = 0.0917199
    Cl(r) = -0.0919246

Time = 30

smoothSolver:  Solving for Ux, Initial residual = 0.00830382, Final residual = 0.000769352, No Iterations 7
smoothSolver:  Solving for Uy, Initial residual = 0.0142207, Final residual = 0.00134148, No Iterations 9
GAMG:  Solving for p, Initial residual = 0.0201123, Final residual = 0.000190382, No Iterations 19
time step continuity errors : sum local = 2.45539e-05, global = -7.60303e-06, cumulative = 3.24219e-05
smoothSolver:  Solving for omega, Initial residual = 0.0001787, Final residual = 7.82783e-06, No Iterations 3
smoothSolver:  Solving for k, Initial residual = 0.000637731, Final residual = 6.15892e-05, No Iterations 2
ExecutionTime = 0.94 s  ClockTime = 3 s

forceCoeffs forceCoeffs_object write:
    Cm    = 0.0610435
    Cd    = 0.112435
    Cl    = -0.00667934
    Cl(f) = 0.0577038
    Cl(r) = -0.0643831

Time = 31

smoothSolver:  Solving for Ux, Initial residual = 0.00974957, Final residual = 0.000889601, No Iterations 7
smoothSolver:  Solving for Uy, Initial residual = 0.0167319, Final residual = 0.00154102, No Iterations 9
GAMG:  Solving for p, Initial residual = 0.0248839, Final residual = 0.000221551, No Iterations 20
time step continuity errors : sum local = 2.23177e-05, global = 5.91988e-06, cumulative = 3.83418e-05
smoothSolver:  Solving for omega, Initial residual = 0.000170546, Final residual = 7.65017e-06, No Iterations 3
smoothSolver:  Solving for k, Initial residual = 0.000645488, Final residual = 2.60605e-05, No Iterations 3
ExecutionTime = 0.96 s  ClockTime = 3 s

forceCoeffs forceCoeffs_object write:
    Cm    = 0.0337783
    Cd    = 0.178416
    Cl    = -0.0132738
    Cl(f) = 0.0271414
    Cl(r) = -0.0404152

Time = 32

smoothSolver:  Solving for Ux, Initial residual = 0.0111715, Final residual = 0.00104178, No Iterations 7
smoothSolver:  Solving for Uy, Initial residual = 0.0209691, Final residual = 0.00183349, No Iterations 9
GAMG:  Solving for p, Initial residual = 0.0341479, Final residual = 0.000332789, No Iterations 19
time step continuity errors : sum local = 2.42892e-05, global = -5.91101e-06, cumulative = 3.24308e-05
smoothSolver:  Solving for omega, Initial residual = 0.000163405, Final residual = 7.83013e-06, No Iterations 3
smoothSolver:  Solving for k, Initial residual = 0.000641553, Final residual = 2.7637e-05, No Iterations 3
ExecutionTime = 0.99 s  ClockTime = 3 s

forceCoeffs forceCoeffs_object write:
    Cm    = 0.0155674
    Cd    = 0.225496
    Cl    = -0.0190886
    Cl(f) = 0.00602314
    Cl(r) = -0.0251117

Time = 33

smoothSolver:  Solving for Ux, Initial residual = 0.0122547, Final residual = 0.00121748, No Iterations 7
smoothSolver:  Solving for Uy, Initial residual = 0.0278661, Final residual = 0.00242452, No Iterations 9
GAMG:  Solving for p, Initial residual = 0.0533289, Final residual = 0.000503357, No Iterations 18
time step continuity errors : sum local = 2.27931e-05, global = 5.23731e-06, cumulative = 3.76681e-05
smoothSolver:  Solving for omega, Initial residual = 0.000156158, Final residual = 7.80458e-06, No Iterations 3
smoothSolver:  Solving for k, Initial residual = 0.000637549, Final residual = 2.55333e-05, No Iterations 3
ExecutionTime = 1.03 s  ClockTime = 3 s

forceCoeffs forceCoeffs_object write:
    Cm    = 0.00446316
    Cd    = 0.256984
    Cl    = -0.0234594
    Cl(f) = -0.00726652
    Cl(r) = -0.0161928

Time = 34

smoothSolver:  Solving for Ux, Initial residual = 0.0127795, Final residual = 0.00115733, No Iterations 8
smoothSolver:  Solving for Uy, Initial residual = 0.0401649, Final residual = 0.00351492, No Iterations 9
GAMG:  Solving for p, Initial residual = 0.0808703, Final residual = 0.000764748, No Iterations 14
time step continuity errors : sum local = 2.241e-05, global = 2.55232e-06, cumulative = 4.02204e-05
smoothSolver:  Solving for omega, Initial residual = 0.000144117, Final residual = 7.43636e-06, No Iterations 3
smoothSolver:  Solving for k, Initial residual = 0.000628429, Final residual = 6.2614e-05, No Iterations 2
ExecutionTime = 1.05 s  ClockTime = 3 s

forceCoeffs forceCoeffs_object write:
    Cm    = -0.000615446
    Cd    = 0.275578
    Cl    = -0.026169
    Cl(f) = -0.0136999
    Cl(r) = -0.012469

Time = 35

smoothSolver:  Solving for Ux, Initial residual = 0.0130341, Final residual = 0.00122167, No Iterations 8
smoothSolver:  Solving for Uy, Initial residual = 0.0654317, Final residual = 0.00571445, No Iterations 9
GAMG:  Solving for p, Initial residual = 0.0855248, Final residual = 0.000731833, No Iterations 14
time step continuity errors : sum local = 2.02927e-05, global = 4.73515e-06, cumulative = 4.49556e-05
smoothSolver:  Solving for omega, Initial residual = 0.000138802, Final residual = 7.20489e-06, No Iterations 3
smoothSolver:  Solving for k, Initial residual = 0.000616527, Final residual = 5.68763e-05, No Iterations 2
ExecutionTime = 1.08 s  ClockTime = 3 s

forceCoeffs forceCoeffs_object write:
    Cm    = -0.000544081
    Cd    = 0.282854
    Cl    = -0.027306
    Cl(f) = -0.0141971
    Cl(r) = -0.0131089

Time = 36

smoothSolver:  Solving for Ux, Initial residual = 0.0128001, Final residual = 0.00123059, No Iterations 8
smoothSolver:  Solving for Uy, Initial residual = 0.120836, Final residual = 0.0104764, No Iterations 9
GAMG:  Solving for p, Initial residual = 0.0822174, Final residual = 0.000742428, No Iterations 14
time step continuity errors : sum local = 2.15994e-05, global = -6.39883e-06, cumulative = 3.85567e-05
smoothSolver:  Solving for omega, Initial residual = 0.000137409, Final residual = 7.19138e-06, No Iterations 3
smoothSolver:  Solving for k, Initial residual = 0.000606344, Final residual = 5.25388e-05, No Iterations 2
ExecutionTime = 1.1 s  ClockTime = 3 s

forceCoeffs forceCoeffs_object write:
    Cm    = 0.00333564
    Cd    = 0.280697
    Cl    = -0.0270061
    Cl(f) = -0.0101674
    Cl(r) = -0.0168387

Time = 37

smoothSolver:  Solving for Ux, Initial residual = 0.0122264, Final residual = 0.00120704, No Iterations 8
smoothSolver:  Solving for Uy, Initial residual = 0.0819667, Final residual = 0.00709987, No Iterations 9
GAMG:  Solving for p, Initial residual = 0.0746381, Final residual = 0.000674028, No Iterations 16
time step continuity errors : sum local = 2.1304e-05, global = -6.14153e-06, cumulative = 3.24152e-05
smoothSolver:  Solving for omega, Initial residual = 0.000128971, Final residual = 6.35253e-06, No Iterations 3
smoothSolver:  Solving for k, Initial residual = 0.000601158, Final residual = 5.07322e-05, No Iterations 2
ExecutionTime = 1.13 s  ClockTime = 3 s

forceCoeffs forceCoeffs_object write:
    Cm    = 0.00872306
    Cd    = 0.274505
    Cl    = -0.0263885
    Cl(f) = -0.00447118
    Cl(r) = -0.0219173

Time = 38

smoothSolver:  Solving for Ux, Initial residual = 0.0115249, Final residual = 0.00114188, No Iterations 8
smoothSolver:  Solving for Uy, Initial residual = 0.0513337, Final residual = 0.00456866, No Iterations 9
GAMG:  Solving for p, Initial residual = 0.0730926, Final residual = 0.000623463, No Iterations 15
time step continuity errors : sum local = 2.05316e-05, global = 8.27987e-06, cumulative = 4.06951e-05
smoothSolver:  Solving for omega, Initial residual = 0.000124394, Final residual = 6.19226e-06, No Iterations 3
smoothSolver:  Solving for k, Initial residual = 0.000568895, Final residual = 4.65679e-05, No Iterations 2
ExecutionTime = 1.15 s  ClockTime = 3 s

forceCoeffs forceCoeffs_object write:
    Cm    = 0.0163847
    Cd    = 0.26356
    Cl    = -0.0257909
    Cl(f) = 0.00348931
    Cl(r) = -0.0292802

Time = 39

smoothSolver:  Solving for Ux, Initial residual = 0.0108524, Final residual = 0.00104041, No Iterations 8
smoothSolver:  Solving for Uy, Initial residual = 0.0394953, Final residual = 0.00366075, No Iterations 9
GAMG:  Solving for p, Initial residual = 0.0665257, Final residual = 0.000620737, No Iterations 14
time step continuity errors : sum local = 2.14593e-05, global = -6.86846e-06, cumulative = 3.38266e-05
smoothSolver:  Solving for omega, Initial residual = 0.000119544, Final residual = 5.94503e-06, No Iterations 3
smoothSolver:  Solving for k, Initial residual = 0.000535032, Final residual = 4.51844e-05, No Iterations 2
ExecutionTime = 1.17 s  ClockTime = 3 s

forceCoeffs forceCoeffs_object write:
    Cm    = 0.0259884
    Cd    = 0.248907
    Cl    = -0.0251154
    Cl(f) = 0.0134307
    Cl(r) = -0.0385461

Time = 40

smoothSolver:  Solving for Ux, Initial residual = 0.0103309, Final residual = 0.000931048, No Iterations 8
smoothSolver:  Solving for Uy, Initial residual = 0.0342503, Final residual = 0.0033128, No Iterations 9
GAMG:  Solving for p, Initial residual = 0.0531673, Final residual = 0.000452791, No Iterations 15
time step continuity errors : sum local = 1.77085e-05, global = 6.97203e-06, cumulative = 4.07986e-05
smoothSolver:  Solving for omega, Initial residual = 0.000113436, Final residual = 5.5024e-06, No Iterations 3
smoothSolver:  Solving for k, Initial residual = 0.000488373, Final residual = 4.12011e-05, No Iterations 2
ExecutionTime = 1.2 s  ClockTime = 3 s

forceCoeffs forceCoeffs_object write:
    Cm    = 0.0363801
    Cd    = 0.233211
    Cl    = -0.0245844
    Cl(f) = 0.0240879
    Cl(r) = -0.0486722

Time = 41

smoothSolver:  Solving for Ux, Initial residual = 0.0100623, Final residual = 0.000994677, No Iterations 7
smoothSolver:  Solving for Uy, Initial residual = 0.0328112, Final residual = 0.00325842, No Iterations 9
GAMG:  Solving for p, Initial residual = 0.0448225, Final residual = 0.000436454, No Iterations 16
time step continuity errors : sum local = 1.95126e-05, global = -6.36829e-06, cumulative = 3.44303e-05
smoothSolver:  Solving for omega, Initial residual = 0.000110559, Final residual = 5.19538e-06, No Iterations 3
smoothSolver:  Solving for k, Initial residual = 0.000448077, Final residual = 3.8371e-05, No Iterations 2
ExecutionTime = 1.22 s  ClockTime = 3 s

forceCoeffs forceCoeffs_object write:
    Cm    = 0.046242
    Cd    = 0.218563
    Cl    = -0.0244536
    Cl(f) = 0.0340152
    Cl(r) = -0.0584687

Time = 42

smoothSolver:  Solving for Ux, Initial residual = 0.00976437, Final residual = 0.000880377, No Iterations 7
smoothSolver:  Solving for Uy, Initial residual = 0.0341443, Final residual = 0.00337307, No Iterations 9
GAMG:  Solving for p, Initial residual = 0.0378631, Final residual = 0.000367002, No Iterations 17
time step continuity errors : sum local = 1.81497e-05, global = 6.29333e-06, cumulative = 4.07237e-05
smoothSolver:  Solving for omega, Initial residual = 0.000109347, Final residual = 5.09174e-06, No Iterations 3
smoothSolver:  Solving for k, Initial residual = 0.000420252, Final residual = 3.53527e-05, No Iterations 2
ExecutionTime = 1.25 s  ClockTime = 3 s

forceCoeffs forceCoeffs_object write:
    Cm    = 0.0535285
    Cd    = 0.209381
    Cl    = -0.02502
    Cl(f) = 0.0410185
    Cl(r) = -0.0660385

Time = 43

smoothSolver:  Solving for Ux, Initial residual = 0.00934884, Final residual = 0.000764432, No Iterations 7
smoothSolver:  Solving for Uy, Initial residual = 0.038478, Final residual = 0.00370639, No Iterations 9
GAMG:  Solving for p, Initial residual = 0.0334946, Final residual = 0.000318821, No Iterations 17
time step continuity errors : sum local = 1.64867e-05, global = 6.52909e-06, cumulative = 4.72528e-05
smoothSolver:  Solving for omega, Initial residual = 0.000110481, Final residual = 4.9269e-06, No Iterations 3
smoothSolver:  Solving for k, Initial residual = 0.000415464, Final residual = 3.46719e-05, No Iterations 2
ExecutionTime = 1.28 s  ClockTime = 3 s

forceCoeffs forceCoeffs_object write:
    Cm    = 0.0560252
    Cd    = 0.210098
    Cl    = -0.0264409
    Cl(f) = 0.0428048
    Cl(r) = -0.0692456

Time = 44

smoothSolver:  Solving for Ux, Initial residual = 0.00890555, Final residual = 0.000814529, No Iterations 6
smoothSolver:  Solving for Uy, Initial residual = 0.0457629, Final residual = 0.00433392, No Iterations 9
GAMG:  Solving for p, Initial residual = 0.0317648, Final residual = 0.000311948, No Iterations 17
time step continuity errors : sum local = 1.58271e-05, global = 5.80105e-06, cumulative = 5.30538e-05
smoothSolver:  Solving for omega, Initial residual = 0.000111228, Final residual = 1.10989e-05, No Iterations 2
smoothSolver:  Solving for k, Initial residual = 0.000414424, Final residual = 3.38051e-05, No Iterations 2
ExecutionTime = 1.3 s  ClockTime = 3 s

forceCoeffs forceCoeffs_object write:
    Cm    = 0.0533964
    Cd    = 0.220869
    Cl    = -0.0284194
    Cl(f) = 0.0391868
    Cl(r) = -0.0676061

Time = 45

smoothSolver:  Solving for Ux, Initial residual = 0.00854837, Final residual = 0.000720564, No Iterations 6
smoothSolver:  Solving for Uy, Initial residual = 0.0530467, Final residual = 0.00506929, No Iterations 9
GAMG:  Solving for p, Initial residual = 0.0300519, Final residual = 0.000256228, No Iterations 18
time step continuity errors : sum local = 1.21583e-05, global = -4.42285e-06, cumulative = 4.8631e-05
smoothSolver:  Solving for omega, Initial residual = 0.000108364, Final residual = 4.60193e-06, No Iterations 3
smoothSolver:  Solving for k, Initial residual = 0.000420503, Final residual = 3.17281e-05, No Iterations 2
ExecutionTime = 1.33 s  ClockTime = 3 s

forceCoeffs forceCoeffs_object write:
    Cm    = 0.0462461
    Cd    = 0.240954
    Cl    = -0.0305347
    Cl(f) = 0.0309788
    Cl(r) = -0.0615135

Time = 46

smoothSolver:  Solving for Ux, Initial residual = 0.00833821, Final residual = 0.000663681, No Iterations 6
smoothSolver:  Solving for Uy, Initial residual = 0.0558593, Final residual = 0.00549629, No Iterations 9
GAMG:  Solving for p, Initial residual = 0.0295706, Final residual = 0.000278308, No Iterations 16
time step continuity errors : sum local = 1.17315e-05, global = -4.64906e-06, cumulative = 4.39819e-05
smoothSolver:  Solving for omega, Initial residual = 0.00010365, Final residual = 4.62919e-06, No Iterations 3
smoothSolver:  Solving for k, Initial residual = 0.000397518, Final residual = 3.20333e-05, No Iterations 2
ExecutionTime = 1.35 s  ClockTime = 3 s

forceCoeffs forceCoeffs_object write:
    Cm    = 0.0379384
    Cd    = 0.263584
    Cl    = -0.0326368
    Cl(f) = 0.02162
    Cl(r) = -0.0542568

Time = 47

smoothSolver:  Solving for Ux, Initial residual = 0.00813997, Final residual = 0.000803776, No Iterations 5
smoothSolver:  Solving for Uy, Initial residual = 0.0498805, Final residual = 0.00454938, No Iterations 10
GAMG:  Solving for p, Initial residual = 0.0310172, Final residual = 0.000266506, No Iterations 16
time step continuity errors : sum local = 9.74625e-06, global = -3.74924e-06, cumulative = 4.02327e-05
smoothSolver:  Solving for omega, Initial residual = 9.82114e-05, Final residual = 4.77146e-06, No Iterations 3
smoothSolver:  Solving for k, Initial residual = 0.000373189, Final residual = 3.35877e-05, No Iterations 2
ExecutionTime = 1.38 s  ClockTime = 3 s

forceCoeffs forceCoeffs_object write:
    Cm    = 0.0303387
    Cd    = 0.285251
    Cl    = -0.0347674
    Cl(f) = 0.012955
    Cl(r) = -0.0477224

Time = 48

smoothSolver:  Solving for Ux, Initial residual = 0.0078148, Final residual = 0.000654654, No Iterations 6
smoothSolver:  Solving for Uy, Initial residual = 0.0394401, Final residual = 0.00383519, No Iterations 10
GAMG:  Solving for p, Initial residual = 0.0312521, Final residual = 0.000244439, No Iterations 16
time step continuity errors : sum local = 7.76475e-06, global = -2.77793e-06, cumulative = 3.74547e-05
smoothSolver:  Solving for omega, Initial residual = 9.31649e-05, Final residual = 4.88419e-06, No Iterations 3
smoothSolver:  Solving for k, Initial residual = 0.000357623, Final residual = 1.41301e-05, No Iterations 3
ExecutionTime = 1.4 s  ClockTime = 3 s

forceCoeffs forceCoeffs_object write:
    Cm    = 0.0238554
    Cd    = 0.305434
    Cl    = -0.0368909
    Cl(f) = 0.00540991
    Cl(r) = -0.0423008

Time = 49

smoothSolver:  Solving for Ux, Initial residual = 0.00741366, Final residual = 0.00068808, No Iterations 6
smoothSolver:  Solving for Uy, Initial residual = 0.0303138, Final residual = 0.00277735, No Iterations 11
GAMG:  Solving for p, Initial residual = 0.0314234, Final residual = 0.000290157, No Iterations 15
time step continuity errors : sum local = 8.33313e-06, global = -2.79955e-06, cumulative = 3.46552e-05
smoothSolver:  Solving for omega, Initial residual = 8.99541e-05, Final residual = 4.9071e-06, No Iterations 3
smoothSolver:  Solving for k, Initial residual = 0.000339651, Final residual = 1.42628e-05, No Iterations 3
ExecutionTime = 1.43 s  ClockTime = 3 s

forceCoeffs forceCoeffs_object write:
    Cm    = 0.0190044
    Cd    = 0.322896
    Cl    = -0.0389632
    Cl(f) = -0.000477233
    Cl(r) = -0.038486

Time = 50

smoothSolver:  Solving for Ux, Initial residual = 0.00700117, Final residual = 0.000614683, No Iterations 7
smoothSolver:  Solving for Uy, Initial residual = 0.0235401, Final residual = 0.00226406, No Iterations 11
GAMG:  Solving for p, Initial residual = 0.029781, Final residual = 0.00023535, No Iterations 17
time step continuity errors : sum local = 6.26778e-06, global = -1.98318e-06, cumulative = 3.2672e-05
smoothSolver:  Solving for omega, Initial residual = 8.50876e-05, Final residual = 4.89337e-06, No Iterations 3
smoothSolver:  Solving for k, Initial residual = 0.000314449, Final residual = 1.43587e-05, No Iterations 3
ExecutionTime = 1.49 s  ClockTime = 3 s

forceCoeffs forceCoeffs_object write:
    Cm    = 0.0152399
    Cd    = 0.338585
    Cl    = -0.0409974
    Cl(f) = -0.00525883
    Cl(r) = -0.0357386

yPlus yPlus write:
    writing object yPlus
    patch suction_side y+ : min = 6.10515, max = 49.9487, average = 29.0685
    patch pressure_side y+ : min = 4.62102, max = 45.5247, average = 29.4797
    patch trailing_edge y+ : min = 76.7134, max = 101.247, average = 88.9802

Time = 51

smoothSolver:  Solving for Ux, Initial residual = 0.00663146, Final residual = 0.000658164, No Iterations 7
smoothSolver:  Solving for Uy, Initial residual = 0.018704, Final residual = 0.00184039, No Iterations 11
GAMG:  Solving for p, Initial residual = 0.0280856, Final residual = 0.000223925, No Iterations 17
time step continuity errors : sum local = 5.73541e-06, global = -1.71807e-06, cumulative = 3.09539e-05
smoothSolver:  Solving for omega, Initial residual = 7.95871e-05, Final residual = 4.76082e-06, No Iterations 3
smoothSolver:  Solving for k, Initial residual = 0.000287884, Final residual = 1.39699e-05, No Iterations 3
ExecutionTime = 1.51 s  ClockTime = 3 s

forceCoeffs forceCoeffs_object write:
    Cm    = 0.0123716
    Cd    = 0.352485
    Cl    = -0.0429526
    Cl(f) = -0.0091047
    Cl(r) = -0.0338479

Time = 52

smoothSolver:  Solving for Ux, Initial residual = 0.00634233, Final residual = 0.000614013, No Iterations 8
smoothSolver:  Solving for Uy, Initial residual = 0.0154808, Final residual = 0.00151337, No Iterations 11
GAMG:  Solving for p, Initial residual = 0.0254275, Final residual = 0.000193076, No Iterations 17
time step continuity errors : sum local = 4.88272e-06, global = -1.31943e-06, cumulative = 2.96345e-05
smoothSolver:  Solving for omega, Initial residual = 7.56473e-05, Final residual = 4.75144e-06, No Iterations 3
smoothSolver:  Solving for k, Initial residual = 0.000269843, Final residual = 1.40554e-05, No Iterations 3
ExecutionTime = 1.54 s  ClockTime = 3 s

forceCoeffs forceCoeffs_object write:
    Cm    = 0.0100327
    Cd    = 0.365396
    Cl    = -0.0448424
    Cl(f) = -0.0123885
    Cl(r) = -0.0324539

Time = 53

smoothSolver:  Solving for Ux, Initial residual = 0.00608903, Final residual = 0.000579431, No Iterations 9
smoothSolver:  Solving for Uy, Initial residual = 0.0133719, Final residual = 0.001257, No Iterations 11
GAMG:  Solving for p, Initial residual = 0.0230216, Final residual = 0.000222681, No Iterations 15
time step continuity errors : sum local = 5.71423e-06, global = -1.38956e-06, cumulative = 2.82449e-05
smoothSolver:  Solving for omega, Initial residual = 7.24857e-05, Final residual = 4.68646e-06, No Iterations 3
smoothSolver:  Solving for k, Initial residual = 0.000255992, Final residual = 1.38286e-05, No Iterations 3
ExecutionTime = 1.57 s  ClockTime = 3 s

forceCoeffs forceCoeffs_object write:
    Cm    = 0.00815966
    Cd    = 0.377303
    Cl    = -0.0466539
    Cl(f) = -0.0151673
    Cl(r) = -0.0314866

Time = 54

smoothSolver:  Solving for Ux, Initial residual = 0.00591278, Final residual = 0.000547599, No Iterations 10
smoothSolver:  Solving for Uy, Initial residual = 0.0119404, Final residual = 0.00106176, No Iterations 11
GAMG:  Solving for p, Initial residual = 0.0214124, Final residual = 0.000189275, No Iterations 15
time step continuity errors : sum local = 5.02799e-06, global = -1.01815e-06, cumulative = 2.72268e-05
smoothSolver:  Solving for omega, Initial residual = 7.10499e-05, Final residual = 4.6614e-06, No Iterations 3
smoothSolver:  Solving for k, Initial residual = 0.00024702, Final residual = 1.35001e-05, No Iterations 3
ExecutionTime = 1.59 s  ClockTime = 3 s

forceCoeffs forceCoeffs_object write:
    Cm    = 0.00660804
    Cd    = 0.388557
    Cl    = -0.0484271
    Cl(f) = -0.0176055
    Cl(r) = -0.0308216

Time = 55

smoothSolver:  Solving for Ux, Initial residual = 0.00582548, Final residual = 0.000520915, No Iterations 11
smoothSolver:  Solving for Uy, Initial residual = 0.0109229, Final residual = 0.00105239, No Iterations 10
GAMG:  Solving for p, Initial residual = 0.0202604, Final residual = 0.000188795, No Iterations 15
time step continuity errors : sum local = 5.20361e-06, global = -8.9632e-07, cumulative = 2.63305e-05
smoothSolver:  Solving for omega, Initial residual = 6.88504e-05, Final residual = 4.60911e-06, No Iterations 3
smoothSolver:  Solving for k, Initial residual = 0.000236158, Final residual = 1.32521e-05, No Iterations 3
ExecutionTime = 1.62 s  ClockTime = 3 s

forceCoeffs forceCoeffs_object write:
    Cm    = 0.00541894
    Cd    = 0.398832
    Cl    = -0.0501487
    Cl(f) = -0.0196554
    Cl(r) = -0.0304933

Time = 56

smoothSolver:  Solving for Ux, Initial residual = 0.00571063, Final residual = 0.000552858, No Iterations 11
smoothSolver:  Solving for Uy, Initial residual = 0.0101864, Final residual = 0.000931568, No Iterations 10
GAMG:  Solving for p, Initial residual = 0.0195267, Final residual = 0.000191704, No Iterations 15
time step continuity errors : sum local = 5.44909e-06, global = -8.55994e-07, cumulative = 2.54745e-05
smoothSolver:  Solving for omega, Initial residual = 6.71507e-05, Final residual = 4.51081e-06, No Iterations 3
smoothSolver:  Solving for k, Initial residual = 0.000226935, Final residual = 1.2994e-05, No Iterations 3
ExecutionTime = 1.64 s  ClockTime = 3 s

forceCoeffs forceCoeffs_object write:
    Cm    = 0.00447961
    Cd    = 0.408437
    Cl    = -0.0518352
    Cl(f) = -0.021438
    Cl(r) = -0.0303972

Time = 57

smoothSolver:  Solving for Ux, Initial residual = 0.00564019, Final residual = 0.000513734, No Iterations 12
smoothSolver:  Solving for Uy, Initial residual = 0.00956839, Final residual = 0.000842779, No Iterations 10
GAMG:  Solving for p, Initial residual = 0.0191072, Final residual = 0.000155798, No Iterations 17
time step continuity errors : sum local = 4.54362e-06, global = -6.98281e-07, cumulative = 2.47762e-05
smoothSolver:  Solving for omega, Initial residual = 6.60153e-05, Final residual = 4.47044e-06, No Iterations 3
smoothSolver:  Solving for k, Initial residual = 0.000219631, Final residual = 1.29677e-05, No Iterations 3
ExecutionTime = 1.67 s  ClockTime = 3 s

forceCoeffs forceCoeffs_object write:
    Cm    = 0.00371102
    Cd    = 0.417639
    Cl    = -0.0535006
    Cl(f) = -0.0230393
    Cl(r) = -0.0304613

Time = 58

smoothSolver:  Solving for Ux, Initial residual = 0.0055542, Final residual = 0.000528743, No Iterations 12
smoothSolver:  Solving for Uy, Initial residual = 0.00900521, Final residual = 0.000778452, No Iterations 10
GAMG:  Solving for p, Initial residual = 0.0187092, Final residual = 0.000157546, No Iterations 17
time step continuity errors : sum local = 4.66497e-06, global = -7.01072e-07, cumulative = 2.40751e-05
smoothSolver:  Solving for omega, Initial residual = 6.44538e-05, Final residual = 4.43419e-06, No Iterations 3
smoothSolver:  Solving for k, Initial residual = 0.000215726, Final residual = 1.26777e-05, No Iterations 3
ExecutionTime = 1.7 s  ClockTime = 3 s

forceCoeffs forceCoeffs_object write:
    Cm    = 0.00314546
    Cd    = 0.426173
    Cl    = -0.0551225
    Cl(f) = -0.0244158
    Cl(r) = -0.0307067

Time = 59

smoothSolver:  Solving for Ux, Initial residual = 0.00537611, Final residual = 0.000533022, No Iterations 12
smoothSolver:  Solving for Uy, Initial residual = 0.00846256, Final residual = 0.000735411, No Iterations 10
GAMG:  Solving for p, Initial residual = 0.0180488, Final residual = 0.000158345, No Iterations 17
time step continuity errors : sum local = 4.77684e-06, global = -7.04887e-07, cumulative = 2.33702e-05
smoothSolver:  Solving for omega, Initial residual = 6.4208e-05, Final residual = 4.47556e-06, No Iterations 3
smoothSolver:  Solving for k, Initial residual = 0.000210684, Final residual = 1.24963e-05, No Iterations 3
ExecutionTime = 1.72 s  ClockTime = 3 s

forceCoeffs forceCoeffs_object write:
    Cm    = 0.00271021
    Cd    = 0.434237
    Cl    = -0.0567157
    Cl(f) = -0.0256477
    Cl(r) = -0.0310681

Time = 60

smoothSolver:  Solving for Ux, Initial residual = 0.00512581, Final residual = 0.000466003, No Iterations 13
smoothSolver:  Solving for Uy, Initial residual = 0.00794274, Final residual = 0.000711829, No Iterations 10
GAMG:  Solving for p, Initial residual = 0.0172236, Final residual = 0.000155952, No Iterations 17
time step continuity errors : sum local = 4.7938e-06, global = -7.1558e-07, cumulative = 2.26546e-05
smoothSolver:  Solving for omega, Initial residual = 6.21194e-05, Final residual = 4.35935e-06, No Iterations 3
smoothSolver:  Solving for k, Initial residual = 0.000207046, Final residual = 1.23155e-05, No Iterations 3
ExecutionTime = 1.75 s  ClockTime = 3 s

forceCoeffs forceCoeffs_object write:
    Cm    = 0.00237013
    Cd    = 0.441958
    Cl    = -0.0582825
    Cl(f) = -0.0267711
    Cl(r) = -0.0315114

Time = 61

smoothSolver:  Solving for Ux, Initial residual = 0.00481107, Final residual = 0.00045186, No Iterations 13
smoothSolver:  Solving for Uy, Initial residual = 0.00747222, Final residual = 0.000705506, No Iterations 10
GAMG:  Solving for p, Initial residual = 0.0163264, Final residual = 0.000145564, No Iterations 17
time step continuity errors : sum local = 4.53855e-06, global = -6.8615e-07, cumulative = 2.19685e-05
smoothSolver:  Solving for omega, Initial residual = 6.10483e-05, Final residual = 4.35171e-06, No Iterations 3
smoothSolver:  Solving for k, Initial residual = 0.00020067, Final residual = 1.21547e-05, No Iterations 3
ExecutionTime = 1.78 s  ClockTime = 3 s

forceCoeffs forceCoeffs_object write:
    Cm    = 0.00214349
    Cd    = 0.449173
    Cl    = -0.0598117
    Cl(f) = -0.0277624
    Cl(r) = -0.0320494

Time = 62

smoothSolver:  Solving for Ux, Initial residual = 0.0044706, Final residual = 0.000431233, No Iterations 13
smoothSolver:  Solving for Uy, Initial residual = 0.00705946, Final residual = 0.000631833, No Iterations 11
GAMG:  Solving for p, Initial residual = 0.0153252, Final residual = 0.000134253, No Iterations 17
time step continuity errors : sum local = 4.26423e-06, global = -6.64302e-07, cumulative = 2.13042e-05
smoothSolver:  Solving for omega, Initial residual = 5.95496e-05, Final residual = 4.28844e-06, No Iterations 3
smoothSolver:  Solving for k, Initial residual = 0.000190955, Final residual = 1.1844e-05, No Iterations 3
ExecutionTime = 1.8 s  ClockTime = 4 s

forceCoeffs forceCoeffs_object write:
    Cm    = 0.00197415
    Cd    = 0.456125
    Cl    = -0.0613107
    Cl(f) = -0.0286812
    Cl(r) = -0.0326295

Time = 63

smoothSolver:  Solving for Ux, Initial residual = 0.00413733, Final residual = 0.000406128, No Iterations 13
smoothSolver:  Solving for Uy, Initial residual = 0.00670797, Final residual = 0.000649995, No Iterations 11
GAMG:  Solving for p, Initial residual = 0.0142468, Final residual = 0.000120836, No Iterations 17
time step continuity errors : sum local = 3.89965e-06, global = -6.51337e-07, cumulative = 2.06529e-05
smoothSolver:  Solving for omega, Initial residual = 5.82798e-05, Final residual = 4.3066e-06, No Iterations 3
smoothSolver:  Solving for k, Initial residual = 0.000184987, Final residual = 1.17472e-05, No Iterations 3
ExecutionTime = 1.83 s  ClockTime = 4 s

forceCoeffs forceCoeffs_object write:
    Cm    = 0.00189495
    Cd    = 0.462544
    Cl    = -0.0627618
    Cl(f) = -0.0294859
    Cl(r) = -0.0332758

Time = 64

smoothSolver:  Solving for Ux, Initial residual = 0.00384405, Final residual = 0.000378326, No Iterations 13
smoothSolver:  Solving for Uy, Initial residual = 0.00643844, Final residual = 0.000602158, No Iterations 12
GAMG:  Solving for p, Initial residual = 0.0131734, Final residual = 0.000107716, No Iterations 17
time step continuity errors : sum local = 3.54506e-06, global = -6.45186e-07, cumulative = 2.00077e-05
smoothSolver:  Solving for omega, Initial residual = 5.68852e-05, Final residual = 4.24543e-06, No Iterations 3
smoothSolver:  Solving for k, Initial residual = 0.000177093, Final residual = 1.13698e-05, No Iterations 3
ExecutionTime = 1.86 s  ClockTime = 4 s

forceCoeffs forceCoeffs_object write:
    Cm    = 0.00184849
    Cd    = 0.468671
    Cl    = -0.0641739
    Cl(f) = -0.0302385
    Cl(r) = -0.0339354

Time = 65

smoothSolver:  Solving for Ux, Initial residual = 0.00359267, Final residual = 0.00034987, No Iterations 13
smoothSolver:  Solving for Uy, Initial residual = 0.00626356, Final residual = 0.000563382, No Iterations 13
GAMG:  Solving for p, Initial residual = 0.0121772, Final residual = 0.000120876, No Iterations 15
time step continuity errors : sum local = 4.05196e-06, global = -9.10181e-07, cumulative = 1.90975e-05
smoothSolver:  Solving for omega, Initial residual = 5.5553e-05, Final residual = 4.16522e-06, No Iterations 3
smoothSolver:  Solving for k, Initial residual = 0.000168521, Final residual = 1.10513e-05, No Iterations 3
ExecutionTime = 1.89 s  ClockTime = 4 s

forceCoeffs forceCoeffs_object write:
    Cm    = 0.00184945
    Cd    = 0.474373
    Cl    = -0.0655284
    Cl(f) = -0.0309147
    Cl(r) = -0.0346136

Time = 66

smoothSolver:  Solving for Ux, Initial residual = 0.00337211, Final residual = 0.000320064, No Iterations 13
smoothSolver:  Solving for Uy, Initial residual = 0.00618907, Final residual = 0.00059371, No Iterations 13
GAMG:  Solving for p, Initial residual = 0.0112052, Final residual = 0.000104728, No Iterations 15
time step continuity errors : sum local = 3.58271e-06, global = -9.13444e-07, cumulative = 1.8184e-05
smoothSolver:  Solving for omega, Initial residual = 5.43192e-05, Final residual = 4.11194e-06, No Iterations 3
smoothSolver:  Solving for k, Initial residual = 0.000162593, Final residual = 1.11757e-05, No Iterations 3
ExecutionTime = 1.91 s  ClockTime = 4 s

forceCoeffs forceCoeffs_object write:
    Cm    = 0.00189347
    Cd    = 0.479634
    Cl    = -0.0668287
    Cl(f) = -0.0315209
    Cl(r) = -0.0353078

Time = 67

smoothSolver:  Solving for Ux, Initial residual = 0.00315869, Final residual = 0.000289772, No Iterations 13
smoothSolver:  Solving for Uy, Initial residual = 0.00621985, Final residual = 0.000556839, No Iterations 14
GAMG:  Solving for p, Initial residual = 0.0103098, Final residual = 8.94537e-05, No Iterations 15
time step continuity errors : sum local = 3.131e-06, global = -8.95712e-07, cumulative = 1.72883e-05
smoothSolver:  Solving for omega, Initial residual = 5.34057e-05, Final residual = 4.07098e-06, No Iterations 3
smoothSolver:  Solving for k, Initial residual = 0.000156384, Final residual = 1.08926e-05, No Iterations 3
ExecutionTime = 1.94 s  ClockTime = 4 s

forceCoeffs forceCoeffs_object write:
    Cm    = 0.00195869
    Cd    = 0.484543
    Cl    = -0.0680715
    Cl(f) = -0.0320771
    Cl(r) = -0.0359944

Time = 68

smoothSolver:  Solving for Ux, Initial residual = 0.00294842, Final residual = 0.000294131, No Iterations 12
smoothSolver:  Solving for Uy, Initial residual = 0.00629438, Final residual = 0.000580288, No Iterations 14
GAMG:  Solving for p, Initial residual = 0.00952106, Final residual = 7.27456e-05, No Iterations 15
time step continuity errors : sum local = 2.6037e-06, global = -8.22488e-07, cumulative = 1.64658e-05
smoothSolver:  Solving for omega, Initial residual = 5.20191e-05, Final residual = 3.97853e-06, No Iterations 3
smoothSolver:  Solving for k, Initial residual = 0.000150876, Final residual = 1.06754e-05, No Iterations 3
ExecutionTime = 1.97 s  ClockTime = 4 s


SIMPLE solution converged in 68 iterations

forceCoeffs forceCoeffs_object write:
    Cm    = 0.00206675
    Cd    = 0.488934
    Cl    = -0.0692408
    Cl(f) = -0.0325536
    Cl(r) = -0.0366871

yPlus yPlus write:
    writing object yPlus
    patch suction_side y+ : min = 6.51771, max = 47.0314, average = 29.0682
    patch pressure_side y+ : min = 4.53956, max = 43.6391, average = 28.6784
    patch trailing_edge y+ : min = 92.3835, max = 104.577, average = 98.4802

End

