/*---------------------------------------------------------------------------*\
  =========                 |
  \\      /  F ield         | OpenFOAM: The Open Source CFD Toolbox
   \\    /   O peration     | Website:  https://openfoam.org
    \\  /    A nd           | Version:  7
     \\/     M anipulation  |
\*---------------------------------------------------------------------------*/
Build  : 7-3bcbaf946ae9
Exec   : simpleFoam
Date   : Jul 19 2022
Time   : 10:24:04
Host   : "Lubuntu"
PID    : 219261
I/O    : uncollated
Case   : /home/ensm_student/Documents/CFD/Rechnerubung/Week07/Parameterstudien_mit_RANS/data/raw/AOA_2
nProcs : 1
sigFpe : Enabling floating point exception trapping (FOAM_SIGFPE).
fileModificationChecking : Monitoring run-time modified files using timeStampMaster (fileModificationSkew 10)
allowSystemOperations : Allowing user-supplied system call operations

// * * * * * * * * * * * * * * * * * * * * * * * * * * * * * * * * * * * * * //
Create time

Using #calcEntry at line 21 in file "/home/ensm_student/Documents/CFD/Rechnerubung/Week07/Parameterstudien_mit_RANS/data/raw/AOA_2/system/controlDict.functions"
Using #codeStream with "/home/ensm_student/Documents/CFD/Rechnerubung/Week07/Parameterstudien_mit_RANS/data/raw/AOA_2/dynamicCode/platforms/linux64GccDPInt32Opt/lib/libcodeStream_fae700cae7aed9dd88a26c6ca17baee52ac59009.so"
Using #calcEntry at line 27 in file "/home/ensm_student/Documents/CFD/Rechnerubung/Week07/Parameterstudien_mit_RANS/data/raw/AOA_2/system/controlDict.functions"
Using #codeStream with "/home/ensm_student/Documents/CFD/Rechnerubung/Week07/Parameterstudien_mit_RANS/data/raw/AOA_2/dynamicCode/platforms/linux64GccDPInt32Opt/lib/libcodeStream_8c6314a787acd8194b0cf8679b363212e627d5db.so"
Using #calcEntry at line 32 in file "/home/ensm_student/Documents/CFD/Rechnerubung/Week07/Parameterstudien_mit_RANS/data/raw/AOA_2/system/controlDict.functions"
Using #codeStream with "/home/ensm_student/Documents/CFD/Rechnerubung/Week07/Parameterstudien_mit_RANS/data/raw/AOA_2/dynamicCode/platforms/linux64GccDPInt32Opt/lib/libcodeStream_844c9c693dfc906dd46778e4cc636c418aa6a075.so"
Using #calcEntry at line 34 in file "/home/ensm_student/Documents/CFD/Rechnerubung/Week07/Parameterstudien_mit_RANS/data/raw/AOA_2/system/controlDict.functions"
Using #codeStream with "/home/ensm_student/Documents/CFD/Rechnerubung/Week07/Parameterstudien_mit_RANS/data/raw/AOA_2/dynamicCode/platforms/linux64GccDPInt32Opt/lib/libcodeStream_8b9df0e8700141fc89ea5daab014598dae76de38.so"
Using #calcEntry at line 22 in file "/home/ensm_student/Documents/CFD/Rechnerubung/Week07/Parameterstudien_mit_RANS/data/raw/AOA_2/system/controlDict.functions"
Using #codeStream with "/home/ensm_student/Documents/CFD/Rechnerubung/Week07/Parameterstudien_mit_RANS/data/raw/AOA_2/dynamicCode/platforms/linux64GccDPInt32Opt/lib/libcodeStream_c1e7426898002371cb01ee4462f8d640f3224bb7.so"
Using #calcEntry at line 22 in file "/home/ensm_student/Documents/CFD/Rechnerubung/Week07/Parameterstudien_mit_RANS/data/raw/AOA_2/system/controlDict.functions"
Using #codeStream with "/home/ensm_student/Documents/CFD/Rechnerubung/Week07/Parameterstudien_mit_RANS/data/raw/AOA_2/dynamicCode/platforms/linux64GccDPInt32Opt/lib/libcodeStream_fc19051592a7bcd8c531ac48d7895ece54ea8ea0.so"
Using #calcEntry at line 23 in file "/home/ensm_student/Documents/CFD/Rechnerubung/Week07/Parameterstudien_mit_RANS/data/raw/AOA_2/system/controlDict.functions"
Using #calcEntry at line 23 in file "/home/ensm_student/Documents/CFD/Rechnerubung/Week07/Parameterstudien_mit_RANS/data/raw/AOA_2/system/controlDict.functions"
Using #codeStream with "/home/ensm_student/Documents/CFD/Rechnerubung/Week07/Parameterstudien_mit_RANS/data/raw/AOA_2/dynamicCode/platforms/linux64GccDPInt32Opt/lib/libcodeStream_9ed3654055278d47b09e14801deffe712a06f62b.so"
Create mesh for time = 0


SIMPLE: Convergence criteria found
        p: tolerance 0.01
        U: tolerance 0.02
        "(k|omega)": tolerance 0.001

Reading field p

Reading field U

Using #calcEntry at line 21 in file "/home/ensm_student/Documents/CFD/Rechnerubung/Week07/Parameterstudien_mit_RANS/data/raw/AOA_2/0/U"
Using #calcEntry at line 27 in file "/home/ensm_student/Documents/CFD/Rechnerubung/Week07/Parameterstudien_mit_RANS/data/raw/AOA_2/0/U"
Using #calcEntry at line 32 in file "/home/ensm_student/Documents/CFD/Rechnerubung/Week07/Parameterstudien_mit_RANS/data/raw/AOA_2/0/U"
Using #calcEntry at line 34 in file "/home/ensm_student/Documents/CFD/Rechnerubung/Week07/Parameterstudien_mit_RANS/data/raw/AOA_2/0/U"
Using #calcEntry at line 25 in file "/home/ensm_student/Documents/CFD/Rechnerubung/Week07/Parameterstudien_mit_RANS/data/raw/AOA_2/0/U"
Using #codeStream with "/home/ensm_student/Documents/CFD/Rechnerubung/Week07/Parameterstudien_mit_RANS/data/raw/AOA_2/dynamicCode/platforms/linux64GccDPInt32Opt/lib/libcodeStream_b2c58a066c163d2f6fb2a3005327bf8a5042fb21.so"
Creating new library in "dynamicCode/_b2c58a066c163d2f6fb2a3005327bf8a5042fb21/platforms/linux64GccDPInt32Opt/lib/libcodeStream_b2c58a066c163d2f6fb2a3005327bf8a5042fb21.so"
Invoking "wmake -s libso /home/ensm_student/Documents/CFD/Rechnerubung/Week07/Parameterstudien_mit_RANS/data/raw/AOA_2/dynamicCode/_b2c58a066c163d2f6fb2a3005327bf8a5042fb21"
wmake libso /home/ensm_student/Documents/CFD/Rechnerubung/Week07/Parameterstudien_mit_RANS/data/raw/AOA_2/dynamicCode/_b2c58a066c163d2f6fb2a3005327bf8a5042fb21
    wmkdep: codeStreamTemplate.C
    Ctoo: codeStreamTemplate.C
    ld: /home/ensm_student/Documents/CFD/Rechnerubung/Week07/Parameterstudien_mit_RANS/data/raw/AOA_2/dynamicCode/_b2c58a066c163d2f6fb2a3005327bf8a5042fb21/../platforms/linux64GccDPInt32Opt/lib/libcodeStream_b2c58a066c163d2f6fb2a3005327bf8a5042fb21.so
Using #calcEntry at line 25 in file "/home/ensm_student/Documents/CFD/Rechnerubung/Week07/Parameterstudien_mit_RANS/data/raw/AOA_2/0/U"
Using #codeStream with "/home/ensm_student/Documents/CFD/Rechnerubung/Week07/Parameterstudien_mit_RANS/data/raw/AOA_2/dynamicCode/platforms/linux64GccDPInt32Opt/lib/libcodeStream_7a89d883199c1ef0441c295131efef6ef1658e5b.so"
Creating new library in "dynamicCode/_7a89d883199c1ef0441c295131efef6ef1658e5b/platforms/linux64GccDPInt32Opt/lib/libcodeStream_7a89d883199c1ef0441c295131efef6ef1658e5b.so"
Invoking "wmake -s libso /home/ensm_student/Documents/CFD/Rechnerubung/Week07/Parameterstudien_mit_RANS/data/raw/AOA_2/dynamicCode/_7a89d883199c1ef0441c295131efef6ef1658e5b"
wmake libso /home/ensm_student/Documents/CFD/Rechnerubung/Week07/Parameterstudien_mit_RANS/data/raw/AOA_2/dynamicCode/_7a89d883199c1ef0441c295131efef6ef1658e5b
    wmkdep: codeStreamTemplate.C
    Ctoo: codeStreamTemplate.C
    ld: /home/ensm_student/Documents/CFD/Rechnerubung/Week07/Parameterstudien_mit_RANS/data/raw/AOA_2/dynamicCode/_7a89d883199c1ef0441c295131efef6ef1658e5b/../platforms/linux64GccDPInt32Opt/lib/libcodeStream_7a89d883199c1ef0441c295131efef6ef1658e5b.so
Reading/calculating face flux field phi

Selecting incompressible transport model Newtonian
Selecting turbulence model type RAS
Selecting RAS turbulence model kOmegaSST
Using #calcEntry at line 21 in file "/home/ensm_student/Documents/CFD/Rechnerubung/Week07/Parameterstudien_mit_RANS/data/raw/AOA_2/0/nut"
Using #calcEntry at line 27 in file "/home/ensm_student/Documents/CFD/Rechnerubung/Week07/Parameterstudien_mit_RANS/data/raw/AOA_2/0/nut"
Using #calcEntry at line 32 in file "/home/ensm_student/Documents/CFD/Rechnerubung/Week07/Parameterstudien_mit_RANS/data/raw/AOA_2/0/nut"
Using #calcEntry at line 34 in file "/home/ensm_student/Documents/CFD/Rechnerubung/Week07/Parameterstudien_mit_RANS/data/raw/AOA_2/0/nut"
Selecting patchDistMethod meshWave
Using #calcEntry at line 21 in file "/home/ensm_student/Documents/CFD/Rechnerubung/Week07/Parameterstudien_mit_RANS/data/raw/AOA_2/0/k"
Using #calcEntry at line 27 in file "/home/ensm_student/Documents/CFD/Rechnerubung/Week07/Parameterstudien_mit_RANS/data/raw/AOA_2/0/k"
Using #calcEntry at line 32 in file "/home/ensm_student/Documents/CFD/Rechnerubung/Week07/Parameterstudien_mit_RANS/data/raw/AOA_2/0/k"
Using #calcEntry at line 34 in file "/home/ensm_student/Documents/CFD/Rechnerubung/Week07/Parameterstudien_mit_RANS/data/raw/AOA_2/0/k"
Using #calcEntry at line 21 in file "/home/ensm_student/Documents/CFD/Rechnerubung/Week07/Parameterstudien_mit_RANS/data/raw/AOA_2/0/omega"
Using #calcEntry at line 27 in file "/home/ensm_student/Documents/CFD/Rechnerubung/Week07/Parameterstudien_mit_RANS/data/raw/AOA_2/0/omega"
Using #calcEntry at line 32 in file "/home/ensm_student/Documents/CFD/Rechnerubung/Week07/Parameterstudien_mit_RANS/data/raw/AOA_2/0/omega"
Using #calcEntry at line 34 in file "/home/ensm_student/Documents/CFD/Rechnerubung/Week07/Parameterstudien_mit_RANS/data/raw/AOA_2/0/omega"
RAS
{
    RASModel        kOmegaSST;
    turbulence      on;
    printCoeffs     on;
    alphaK1         0.85;
    alphaK2         1;
    alphaOmega1     0.5;
    alphaOmega2     0.856;
    gamma1          0.555556;
    gamma2          0.44;
    beta1           0.075;
    beta2           0.0828;
    betaStar        0.09;
    a1              0.31;
    b1              1;
    c1              10;
    F3              false;
}

No MRF models present

No finite volume options present

Starting time loop

--> FOAM Warning : 
    From function bool Foam::functionObjectList::read()
    in file db/functionObjects/functionObjectList/functionObjectList.C at line 682
    Reading "/home/ensm_student/Documents/CFD/Rechnerubung/Week07/Parameterstudien_mit_RANS/data/raw/AOA_2/system/controlDict" from line 18 to line 17
    Entry mag_U_infty is not a dictionary
--> FOAM Warning : 
    From function bool Foam::functionObjectList::read()
    in file db/functionObjects/functionObjectList/functionObjectList.C at line 682
    Reading "/home/ensm_student/Documents/CFD/Rechnerubung/Week07/Parameterstudien_mit_RANS/data/raw/AOA_2/system/controlDict" from line 18 to line 17
    Entry alpha_DEG is not a dictionary
--> FOAM Warning : 
    From function bool Foam::functionObjectList::read()
    in file db/functionObjects/functionObjectList/functionObjectList.C at line 682
    Reading "/home/ensm_student/Documents/CFD/Rechnerubung/Week07/Parameterstudien_mit_RANS/data/raw/AOA_2/system/controlDict" from line 18 to line 17
    Entry alpha_RAD is not a dictionary
--> FOAM Warning : 
    From function bool Foam::functionObjectList::read()
    in file db/functionObjects/functionObjectList/functionObjectList.C at line 682
    Reading "/home/ensm_student/Documents/CFD/Rechnerubung/Week07/Parameterstudien_mit_RANS/data/raw/AOA_2/system/controlDict" from line 18 to line 17
    Entry intensity is not a dictionary
--> FOAM Warning : 
    From function bool Foam::functionObjectList::read()
    in file db/functionObjects/functionObjectList/functionObjectList.C at line 682
    Reading "/home/ensm_student/Documents/CFD/Rechnerubung/Week07/Parameterstudien_mit_RANS/data/raw/AOA_2/system/controlDict" from line 18 to line 17
    Entry k_inlet is not a dictionary
--> FOAM Warning : 
    From function bool Foam::functionObjectList::read()
    in file db/functionObjects/functionObjectList/functionObjectList.C at line 682
    Reading "/home/ensm_student/Documents/CFD/Rechnerubung/Week07/Parameterstudien_mit_RANS/data/raw/AOA_2/system/controlDict" from line 18 to line 17
    Entry beta_1 is not a dictionary
--> FOAM Warning : 
    From function bool Foam::functionObjectList::read()
    in file db/functionObjects/functionObjectList/functionObjectList.C at line 682
    Reading "/home/ensm_student/Documents/CFD/Rechnerubung/Week07/Parameterstudien_mit_RANS/data/raw/AOA_2/system/controlDict" from line 18 to line 17
    Entry nu is not a dictionary
--> FOAM Warning : 
    From function bool Foam::functionObjectList::read()
    in file db/functionObjects/functionObjectList/functionObjectList.C at line 682
    Reading "/home/ensm_student/Documents/CFD/Rechnerubung/Week07/Parameterstudien_mit_RANS/data/raw/AOA_2/system/controlDict" from line 18 to line 17
    Entry del_y_1 is not a dictionary
--> FOAM Warning : 
    From function bool Foam::functionObjectList::read()
    in file db/functionObjects/functionObjectList/functionObjectList.C at line 682
    Reading "/home/ensm_student/Documents/CFD/Rechnerubung/Week07/Parameterstudien_mit_RANS/data/raw/AOA_2/system/controlDict" from line 18 to line 17
    Entry omega is not a dictionary
--> FOAM Warning : 
    From function bool Foam::functionObjectList::read()
    in file db/functionObjects/functionObjectList/functionObjectList.C at line 682
    Reading "/home/ensm_student/Documents/CFD/Rechnerubung/Week07/Parameterstudien_mit_RANS/data/raw/AOA_2/system/controlDict" from line 18 to line 17
    Entry nut is not a dictionary
--> FOAM Warning : 
    From function bool Foam::functionObjectList::read()
    in file db/functionObjects/functionObjectList/functionObjectList.C at line 682
    Reading "/home/ensm_student/Documents/CFD/Rechnerubung/Week07/Parameterstudien_mit_RANS/data/raw/AOA_2/system/controlDict" from line 18 to line 17
    Entry x_ is not a dictionary
--> FOAM Warning : 
    From function bool Foam::functionObjectList::read()
    in file db/functionObjects/functionObjectList/functionObjectList.C at line 682
    Reading "/home/ensm_student/Documents/CFD/Rechnerubung/Week07/Parameterstudien_mit_RANS/data/raw/AOA_2/system/controlDict" from line 18 to line 17
    Entry y_ is not a dictionary
--> FOAM Warning : 
    From function void Foam::timeControl::read(const Foam::dictionary&)
    in file db/functionObjects/timeControl/timeControl.C at line 89
    Reading "/home/ensm_student/Documents/CFD/Rechnerubung/Week07/Parameterstudien_mit_RANS/data/raw/AOA_2/system/controlDict.functions.forceCoeffs_object" from line 28 to line 48
    Using deprecated 'outputControl'
    Please use 'writeControl' with 'writeInterval'
forces forceCoeffs_object:
    Not including porosity effects
forceCoeffs forceCoeffs_object:
    Not including porosity effects
--> FOAM Warning : 
    From function void Foam::timeControl::read(const Foam::dictionary&)
    in file db/functionObjects/timeControl/timeControl.C at line 89
    Reading "/home/ensm_student/Documents/CFD/Rechnerubung/Week07/Parameterstudien_mit_RANS/data/raw/AOA_2/system/controlDict.functions.residuals" from line 19 to line 31
    Using deprecated 'outputControl'
    Please use 'writeControl' with 'writeInterval'
Time = 1

smoothSolver:  Solving for Ux, Initial residual = 1, Final residual = 0.0986397, No Iterations 18
smoothSolver:  Solving for Uy, Initial residual = 1, Final residual = 0.0974499, No Iterations 18
GAMG:  Solving for p, Initial residual = 1, Final residual = 0.00934135, No Iterations 30
time step continuity errors : sum local = 1.53929e-05, global = -2.68286e-06, cumulative = -2.68286e-06
smoothSolver:  Solving for omega, Initial residual = 0.00137115, Final residual = 0.000116017, No Iterations 3
bounding omega, min: -22.2965 max: 1873.49 average: 22.7614
smoothSolver:  Solving for k, Initial residual = 1, Final residual = 0.0576516, No Iterations 3
ExecutionTime = 0.11 s  ClockTime = 1 s

forceCoeffs forceCoeffs_object write:
    Cm    = -0.0517737
    Cd    = 0.256682
    Cl    = 0.211848
    Cl(f) = 0.0541504
    Cl(r) = 0.157698

Time = 2

smoothSolver:  Solving for Ux, Initial residual = 0.0145486, Final residual = 0.00130036, No Iterations 13
smoothSolver:  Solving for Uy, Initial residual = 0.347779, Final residual = 0.0332068, No Iterations 13
GAMG:  Solving for p, Initial residual = 0.298833, Final residual = 0.00248251, No Iterations 18
time step continuity errors : sum local = 6.23539e-05, global = -1.41258e-05, cumulative = -1.68086e-05
smoothSolver:  Solving for omega, Initial residual = 0.00303924, Final residual = 0.000165235, No Iterations 3
smoothSolver:  Solving for k, Initial residual = 0.228559, Final residual = 0.0157042, No Iterations 3
ExecutionTime = 0.14 s  ClockTime = 1 s

forceCoeffs forceCoeffs_object write:
    Cm    = -0.0336474
    Cd    = 0.157261
    Cl    = 0.136444
    Cl(f) = 0.0345745
    Cl(r) = 0.101869

Time = 3

smoothSolver:  Solving for Ux, Initial residual = 0.00671661, Final residual = 0.000653606, No Iterations 11
smoothSolver:  Solving for Uy, Initial residual = 0.202143, Final residual = 0.0190339, No Iterations 12
GAMG:  Solving for p, Initial residual = 0.0793518, Final residual = 0.00068707, No Iterations 21
time step continuity errors : sum local = 4.82038e-05, global = -1.06245e-05, cumulative = -2.74331e-05
smoothSolver:  Solving for omega, Initial residual = 0.00260322, Final residual = 0.00025823, No Iterations 2
smoothSolver:  Solving for k, Initial residual = 0.0614244, Final residual = 0.00418092, No Iterations 3
ExecutionTime = 0.17 s  ClockTime = 1 s

forceCoeffs forceCoeffs_object write:
    Cm    = -0.0382263
    Cd    = 0.147916
    Cl    = 0.0622624
    Cl(f) = -0.00709509
    Cl(r) = 0.0693575

Time = 4

smoothSolver:  Solving for Ux, Initial residual = 0.00479261, Final residual = 0.000452972, No Iterations 10
smoothSolver:  Solving for Uy, Initial residual = 0.0770014, Final residual = 0.0074309, No Iterations 12
GAMG:  Solving for p, Initial residual = 0.0722853, Final residual = 0.000721939, No Iterations 21
time step continuity errors : sum local = 4.31174e-05, global = 1.88535e-05, cumulative = -8.57966e-06
smoothSolver:  Solving for omega, Initial residual = 0.00134232, Final residual = 5.59943e-05, No Iterations 3
smoothSolver:  Solving for k, Initial residual = 0.0210909, Final residual = 0.00143909, No Iterations 3
ExecutionTime = 0.2 s  ClockTime = 1 s

forceCoeffs forceCoeffs_object write:
    Cm    = -0.0418437
    Cd    = 0.152145
    Cl    = 0.0209754
    Cl(f) = -0.031356
    Cl(r) = 0.0523314

Time = 5

smoothSolver:  Solving for Ux, Initial residual = 0.00360662, Final residual = 0.000323313, No Iterations 10
smoothSolver:  Solving for Uy, Initial residual = 0.0428376, Final residual = 0.00391902, No Iterations 12
GAMG:  Solving for p, Initial residual = 0.0596019, Final residual = 0.000563396, No Iterations 19
time step continuity errors : sum local = 3.36341e-05, global = 1.35479e-05, cumulative = 4.96822e-06
smoothSolver:  Solving for omega, Initial residual = 0.00102774, Final residual = 7.44258e-05, No Iterations 2
smoothSolver:  Solving for k, Initial residual = 0.00746724, Final residual = 0.000527491, No Iterations 3
ExecutionTime = 0.23 s  ClockTime = 2 s

forceCoeffs forceCoeffs_object write:
    Cm    = -0.0435317
    Cd    = 0.155274
    Cl    = 0.00401444
    Cl(f) = -0.0415245
    Cl(r) = 0.0455389

Time = 6

smoothSolver:  Solving for Ux, Initial residual = 0.0028406, Final residual = 0.00027384, No Iterations 9
smoothSolver:  Solving for Uy, Initial residual = 0.0284186, Final residual = 0.00251335, No Iterations 13
GAMG:  Solving for p, Initial residual = 0.0672564, Final residual = 0.000522862, No Iterations 13
time step continuity errors : sum local = 2.17122e-05, global = 8.2782e-06, cumulative = 1.32464e-05
smoothSolver:  Solving for omega, Initial residual = 0.000694332, Final residual = 5.60872e-05, No Iterations 2
smoothSolver:  Solving for k, Initial residual = 0.00339752, Final residual = 0.000226758, No Iterations 3
ExecutionTime = 0.26 s  ClockTime = 2 s

forceCoeffs forceCoeffs_object write:
    Cm    = -0.0483573
    Cd    = 0.162116
    Cl    = 0.0023867
    Cl(f) = -0.047164
    Cl(r) = 0.0495507

Time = 7

smoothSolver:  Solving for Ux, Initial residual = 0.00243419, Final residual = 0.000237717, No Iterations 9
smoothSolver:  Solving for Uy, Initial residual = 0.0216025, Final residual = 0.00209083, No Iterations 13
GAMG:  Solving for p, Initial residual = 0.0765554, Final residual = 0.000743266, No Iterations 17
time step continuity errors : sum local = 2.31289e-05, global = 8.00132e-06, cumulative = 2.12477e-05
smoothSolver:  Solving for omega, Initial residual = 0.000530634, Final residual = 4.44117e-05, No Iterations 2
smoothSolver:  Solving for k, Initial residual = 0.00285729, Final residual = 0.000175872, No Iterations 3
ExecutionTime = 0.28 s  ClockTime = 2 s

forceCoeffs forceCoeffs_object write:
    Cm    = -0.0579547
    Cd    = 0.178832
    Cl    = 0.00675269
    Cl(f) = -0.0545783
    Cl(r) = 0.061331

Time = 8

smoothSolver:  Solving for Ux, Initial residual = 0.00228634, Final residual = 0.000221996, No Iterations 9
smoothSolver:  Solving for Uy, Initial residual = 0.0180722, Final residual = 0.00174977, No Iterations 13
GAMG:  Solving for p, Initial residual = 0.0751585, Final residual = 0.000671188, No Iterations 18
time step continuity errors : sum local = 1.72156e-05, global = -8.97713e-06, cumulative = 1.22706e-05
smoothSolver:  Solving for omega, Initial residual = 0.000407911, Final residual = 3.69072e-05, No Iterations 2
smoothSolver:  Solving for k, Initial residual = 0.00226225, Final residual = 0.000143543, No Iterations 3
ExecutionTime = 0.31 s  ClockTime = 2 s

forceCoeffs forceCoeffs_object write:
    Cm    = -0.0717161
    Cd    = 0.206527
    Cl    = 0.0117603
    Cl(f) = -0.065836
    Cl(r) = 0.0775962

Time = 9

smoothSolver:  Solving for Ux, Initial residual = 0.00229807, Final residual = 0.000217555, No Iterations 9
smoothSolver:  Solving for Uy, Initial residual = 0.0151357, Final residual = 0.00148671, No Iterations 13
GAMG:  Solving for p, Initial residual = 0.0717234, Final residual = 0.000638147, No Iterations 21
time step continuity errors : sum local = 1.53186e-05, global = 6.20266e-06, cumulative = 1.84733e-05
smoothSolver:  Solving for omega, Initial residual = 0.000361583, Final residual = 3.46844e-05, No Iterations 2
smoothSolver:  Solving for k, Initial residual = 0.00175689, Final residual = 0.000110699, No Iterations 3
ExecutionTime = 0.34 s  ClockTime = 2 s

forceCoeffs forceCoeffs_object write:
    Cm    = -0.0873854
    Cd    = 0.243372
    Cl    = 0.0149077
    Cl(f) = -0.0799315
    Cl(r) = 0.0948392

Time = 10

smoothSolver:  Solving for Ux, Initial residual = 0.00232581, Final residual = 0.000218774, No Iterations 9
smoothSolver:  Solving for Uy, Initial residual = 0.0131366, Final residual = 0.00116361, No Iterations 14
GAMG:  Solving for p, Initial residual = 0.0591786, Final residual = 0.000585476, No Iterations 21
time step continuity errors : sum local = 1.53905e-05, global = -7.54447e-06, cumulative = 1.09288e-05
smoothSolver:  Solving for omega, Initial residual = 0.000320096, Final residual = 3.02047e-05, No Iterations 2
smoothSolver:  Solving for k, Initial residual = 0.0013267, Final residual = 7.98992e-05, No Iterations 3
bounding k, min: -0.00197125 max: 3.60893 average: 0.0269313
ExecutionTime = 0.37 s  ClockTime = 2 s

forceCoeffs forceCoeffs_object write:
    Cm    = -0.103214
    Cd    = 0.283201
    Cl    = 0.0158507
    Cl(f) = -0.0952889
    Cl(r) = 0.11114

Time = 11

smoothSolver:  Solving for Ux, Initial residual = 0.00238568, Final residual = 0.000228845, No Iterations 9
smoothSolver:  Solving for Uy, Initial residual = 0.0117323, Final residual = 0.00116324, No Iterations 13
GAMG:  Solving for p, Initial residual = 0.0510289, Final residual = 0.000463726, No Iterations 22
time step continuity errors : sum local = 1.35284e-05, global = 6.12554e-06, cumulative = 1.70543e-05
smoothSolver:  Solving for omega, Initial residual = 0.000299433, Final residual = 2.9537e-05, No Iterations 2
smoothSolver:  Solving for k, Initial residual = 0.00103607, Final residual = 6.29336e-05, No Iterations 3
bounding k, min: -0.0130832 max: 3.68112 average: 0.0319068
ExecutionTime = 0.4 s  ClockTime = 2 s

forceCoeffs forceCoeffs_object write:
    Cm    = -0.117646
    Cd    = 0.324363
    Cl    = 0.0151225
    Cl(f) = -0.110085
    Cl(r) = 0.125207

Time = 12

smoothSolver:  Solving for Ux, Initial residual = 0.00246983, Final residual = 0.000226497, No Iterations 10
smoothSolver:  Solving for Uy, Initial residual = 0.0107365, Final residual = 0.0010467, No Iterations 13
GAMG:  Solving for p, Initial residual = 0.046186, Final residual = 0.00044508, No Iterations 20
time step continuity errors : sum local = 1.37975e-05, global = 6.59812e-06, cumulative = 2.36524e-05
smoothSolver:  Solving for omega, Initial residual = 0.00029098, Final residual = 2.82784e-05, No Iterations 2
smoothSolver:  Solving for k, Initial residual = 0.000863223, Final residual = 5.1177e-05, No Iterations 3
ExecutionTime = 0.43 s  ClockTime = 2 s

forceCoeffs forceCoeffs_object write:
    Cm    = -0.128194
    Cd    = 0.35949
    Cl    = 0.0133529
    Cl(f) = -0.121517
    Cl(r) = 0.13487

Time = 13

smoothSolver:  Solving for Ux, Initial residual = 0.00261371, Final residual = 0.000254545, No Iterations 10
smoothSolver:  Solving for Uy, Initial residual = 0.0101696, Final residual = 0.000938009, No Iterations 13
GAMG:  Solving for p, Initial residual = 0.0471841, Final residual = 0.000434782, No Iterations 19
time step continuity errors : sum local = 1.30157e-05, global = -6.42164e-06, cumulative = 1.72308e-05
smoothSolver:  Solving for omega, Initial residual = 0.000280252, Final residual = 2.7827e-05, No Iterations 2
smoothSolver:  Solving for k, Initial residual = 0.000747835, Final residual = 4.27623e-05, No Iterations 3
ExecutionTime = 0.46 s  ClockTime = 2 s

forceCoeffs forceCoeffs_object write:
    Cm    = -0.135577
    Cd    = 0.389126
    Cl    = 0.0111057
    Cl(f) = -0.130024
    Cl(r) = 0.14113

Time = 14

smoothSolver:  Solving for Ux, Initial residual = 0.00279778, Final residual = 0.000246562, No Iterations 11
smoothSolver:  Solving for Uy, Initial residual = 0.00972457, Final residual = 0.0009418, No Iterations 12
GAMG:  Solving for p, Initial residual = 0.0548927, Final residual = 0.000542466, No Iterations 16
time step continuity errors : sum local = 1.38237e-05, global = -7.10847e-06, cumulative = 1.01223e-05
smoothSolver:  Solving for omega, Initial residual = 0.000266359, Final residual = 2.55147e-05, No Iterations 2
smoothSolver:  Solving for k, Initial residual = 0.000672614, Final residual = 3.70515e-05, No Iterations 3
bounding k, min: -0.00180419 max: 3.8579 average: 0.0436224
ExecutionTime = 0.49 s  ClockTime = 2 s

forceCoeffs forceCoeffs_object write:
    Cm    = -0.139483
    Cd    = 0.411688
    Cl    = 0.00876784
    Cl(f) = -0.135099
    Cl(r) = 0.143867

Time = 15

smoothSolver:  Solving for Ux, Initial residual = 0.00295136, Final residual = 0.000263246, No Iterations 11
smoothSolver:  Solving for Uy, Initial residual = 0.00933521, Final residual = 0.000820627, No Iterations 12
GAMG:  Solving for p, Initial residual = 0.0710608, Final residual = 0.000516896, No Iterations 17
time step continuity errors : sum local = 9.74128e-06, global = 2.90821e-06, cumulative = 1.30306e-05
smoothSolver:  Solving for omega, Initial residual = 0.00024726, Final residual = 2.4337e-05, No Iterations 2
smoothSolver:  Solving for k, Initial residual = 0.000602887, Final residual = 3.20267e-05, No Iterations 3
ExecutionTime = 0.52 s  ClockTime = 2 s

forceCoeffs forceCoeffs_object write:
    Cm    = -0.13954
    Cd    = 0.424959
    Cl    = 0.00652886
    Cl(f) = -0.136276
    Cl(r) = 0.142805

Time = 16

smoothSolver:  Solving for Ux, Initial residual = 0.00305492, Final residual = 0.00027803, No Iterations 11
smoothSolver:  Solving for Uy, Initial residual = 0.00898228, Final residual = 0.000818012, No Iterations 11
GAMG:  Solving for p, Initial residual = 0.0799068, Final residual = 0.000708223, No Iterations 19
time step continuity errors : sum local = 1.15909e-05, global = 4.59881e-06, cumulative = 1.76294e-05
smoothSolver:  Solving for omega, Initial residual = 0.000236511, Final residual = 2.26925e-05, No Iterations 2
smoothSolver:  Solving for k, Initial residual = 0.00055662, Final residual = 2.98751e-05, No Iterations 3
ExecutionTime = 0.54 s  ClockTime = 2 s

forceCoeffs forceCoeffs_object write:
    Cm    = -0.133529
    Cd    = 0.423866
    Cl    = 0.00466589
    Cl(f) = -0.131196
    Cl(r) = 0.135862

Time = 17

smoothSolver:  Solving for Ux, Initial residual = 0.0030937, Final residual = 0.000286593, No Iterations 11
smoothSolver:  Solving for Uy, Initial residual = 0.00875804, Final residual = 0.000833526, No Iterations 10
GAMG:  Solving for p, Initial residual = 0.0558092, Final residual = 0.000556684, No Iterations 19
time step continuity errors : sum local = 1.30542e-05, global = 6.37178e-06, cumulative = 2.40011e-05
smoothSolver:  Solving for omega, Initial residual = 0.00021758, Final residual = 8.47883e-06, No Iterations 3
smoothSolver:  Solving for k, Initial residual = 0.00053132, Final residual = 2.8782e-05, No Iterations 3
ExecutionTime = 0.57 s  ClockTime = 2 s

forceCoeffs forceCoeffs_object write:
    Cm    = -0.123838
    Cd    = 0.412623
    Cl    = 0.00340003
    Cl(f) = -0.122138
    Cl(r) = 0.125538

Time = 18

smoothSolver:  Solving for Ux, Initial residual = 0.0030855, Final residual = 0.000295008, No Iterations 11
smoothSolver:  Solving for Uy, Initial residual = 0.00880788, Final residual = 0.000795559, No Iterations 10
GAMG:  Solving for p, Initial residual = 0.0415465, Final residual = 0.000336228, No Iterations 21
time step continuity errors : sum local = 1.01882e-05, global = 4.69012e-06, cumulative = 2.86913e-05
smoothSolver:  Solving for omega, Initial residual = 0.000209632, Final residual = 8.72874e-06, No Iterations 3
bounding omega, min: -365.039 max: 22773.1 average: 134.322
smoothSolver:  Solving for k, Initial residual = 0.000520666, Final residual = 2.67463e-05, No Iterations 3
bounding k, min: -0.00123276 max: 4.034 average: 0.0528903
ExecutionTime = 0.6 s  ClockTime = 2 s

forceCoeffs forceCoeffs_object write:
    Cm    = -0.108131
    Cd    = 0.38691
    Cl    = 0.00270423
    Cl(f) = -0.106779
    Cl(r) = 0.109483

Time = 19

smoothSolver:  Solving for Ux, Initial residual = 0.00308778, Final residual = 0.000305544, No Iterations 11
smoothSolver:  Solving for Uy, Initial residual = 0.00934728, Final residual = 0.000814491, No Iterations 10
GAMG:  Solving for p, Initial residual = 0.0346099, Final residual = 0.000340138, No Iterations 19
time step continuity errors : sum local = 1.27052e-05, global = 5.67074e-06, cumulative = 3.4362e-05
smoothSolver:  Solving for omega, Initial residual = 0.000218817, Final residual = 8.9431e-06, No Iterations 3
smoothSolver:  Solving for k, Initial residual = 0.000548081, Final residual = 2.66847e-05, No Iterations 3
ExecutionTime = 0.63 s  ClockTime = 2 s

forceCoeffs forceCoeffs_object write:
    Cm    = -0.0865242
    Cd    = 0.347427
    Cl    = 0.00295811
    Cl(f) = -0.0850451
    Cl(r) = 0.0880032

Time = 20

smoothSolver:  Solving for Ux, Initial residual = 0.00312494, Final residual = 0.00027757, No Iterations 12
smoothSolver:  Solving for Uy, Initial residual = 0.0109374, Final residual = 0.000951316, No Iterations 10
GAMG:  Solving for p, Initial residual = 0.0307566, Final residual = 0.000266995, No Iterations 20
time step continuity errors : sum local = 1.20925e-05, global = 4.86641e-06, cumulative = 3.92284e-05
smoothSolver:  Solving for omega, Initial residual = 0.00019604, Final residual = 8.29538e-06, No Iterations 3
smoothSolver:  Solving for k, Initial residual = 0.000571061, Final residual = 2.67384e-05, No Iterations 3
ExecutionTime = 0.66 s  ClockTime = 2 s

forceCoeffs forceCoeffs_object write:
    Cm    = -0.0598231
    Cd    = 0.296023
    Cl    = 0.00386442
    Cl(f) = -0.0578909
    Cl(r) = 0.0617553

Time = 21

smoothSolver:  Solving for Ux, Initial residual = 0.00325753, Final residual = 0.000293248, No Iterations 12
smoothSolver:  Solving for Uy, Initial residual = 0.0146136, Final residual = 0.00133937, No Iterations 10
GAMG:  Solving for p, Initial residual = 0.0281443, Final residual = 0.000257269, No Iterations 21
time step continuity errors : sum local = 1.37677e-05, global = -5.22626e-06, cumulative = 3.40021e-05
smoothSolver:  Solving for omega, Initial residual = 0.000191889, Final residual = 7.90769e-06, No Iterations 3
smoothSolver:  Solving for k, Initial residual = 0.000597352, Final residual = 2.6078e-05, No Iterations 3
ExecutionTime = 0.69 s  ClockTime = 2 s

forceCoeffs forceCoeffs_object write:
    Cm    = -0.0293472
    Cd    = 0.235427
    Cl    = 0.00538102
    Cl(f) = -0.0266567
    Cl(r) = 0.0320377

Time = 22

smoothSolver:  Solving for Ux, Initial residual = 0.0034388, Final residual = 0.000308961, No Iterations 12
smoothSolver:  Solving for Uy, Initial residual = 0.0234247, Final residual = 0.00229356, No Iterations 10
GAMG:  Solving for p, Initial residual = 0.0239414, Final residual = 0.000213179, No Iterations 20
time step continuity errors : sum local = 1.35725e-05, global = 4.65507e-06, cumulative = 3.86572e-05
smoothSolver:  Solving for omega, Initial residual = 0.00019281, Final residual = 1.81234e-05, No Iterations 2
smoothSolver:  Solving for k, Initial residual = 0.000606306, Final residual = 2.73241e-05, No Iterations 3
ExecutionTime = 0.72 s  ClockTime = 2 s

forceCoeffs forceCoeffs_object write:
    Cm    = 0.00117914
    Cd    = 0.173902
    Cl    = 0.00677811
    Cl(f) = 0.00456819
    Cl(r) = 0.00220992

Time = 23

smoothSolver:  Solving for Ux, Initial residual = 0.00365183, Final residual = 0.000328484, No Iterations 12
smoothSolver:  Solving for Uy, Initial residual = 0.0556198, Final residual = 0.00501852, No Iterations 11
GAMG:  Solving for p, Initial residual = 0.0213957, Final residual = 0.000180026, No Iterations 19
time step continuity errors : sum local = 1.32009e-05, global = -4.57566e-06, cumulative = 3.40816e-05
smoothSolver:  Solving for omega, Initial residual = 0.00019175, Final residual = 1.66769e-05, No Iterations 2
smoothSolver:  Solving for k, Initial residual = 0.00058689, Final residual = 2.67301e-05, No Iterations 3
ExecutionTime = 0.75 s  ClockTime = 2 s

forceCoeffs forceCoeffs_object write:
    Cm    = 0.0296626
    Cd    = 0.11636
    Cl    = 0.00748109
    Cl(f) = 0.0334031
    Cl(r) = -0.0259221

Time = 24

smoothSolver:  Solving for Ux, Initial residual = 0.00391334, Final residual = 0.000338124, No Iterations 12
smoothSolver:  Solving for Uy, Initial residual = 0.0385504, Final residual = 0.00355211, No Iterations 11
GAMG:  Solving for p, Initial residual = 0.0204422, Final residual = 0.00019695, No Iterations 19
time step continuity errors : sum local = 1.50023e-05, global = -6.72815e-06, cumulative = 2.73534e-05
smoothSolver:  Solving for omega, Initial residual = 0.00018277, Final residual = 1.5819e-05, No Iterations 2
smoothSolver:  Solving for k, Initial residual = 0.000568124, Final residual = 2.44428e-05, No Iterations 3
ExecutionTime = 0.78 s  ClockTime = 2 s

forceCoeffs forceCoeffs_object write:
    Cm    = 0.0528553
    Cd    = 0.0702251
    Cl    = 0.00711545
    Cl(f) = 0.056413
    Cl(r) = -0.0492976

Time = 25

smoothSolver:  Solving for Ux, Initial residual = 0.00422798, Final residual = 0.000388231, No Iterations 11
smoothSolver:  Solving for Uy, Initial residual = 0.0213805, Final residual = 0.00197221, No Iterations 11
GAMG:  Solving for p, Initial residual = 0.0218052, Final residual = 0.000182579, No Iterations 19
time step continuity errors : sum local = 1.32936e-05, global = -5.88052e-06, cumulative = 2.14729e-05
smoothSolver:  Solving for omega, Initial residual = 0.00016198, Final residual = 1.43064e-05, No Iterations 2
smoothSolver:  Solving for k, Initial residual = 0.00053732, Final residual = 5.18825e-05, No Iterations 2
ExecutionTime = 0.81 s  ClockTime = 2 s

forceCoeffs forceCoeffs_object write:
    Cm    = 0.0663948
    Cd    = 0.043673
    Cl    = 0.00589246
    Cl(f) = 0.069341
    Cl(r) = -0.0634486

Time = 26

smoothSolver:  Solving for Ux, Initial residual = 0.00469435, Final residual = 0.000441802, No Iterations 10
smoothSolver:  Solving for Uy, Initial residual = 0.0159656, Final residual = 0.00147666, No Iterations 11
GAMG:  Solving for p, Initial residual = 0.0244539, Final residual = 0.000239721, No Iterations 17
time step continuity errors : sum local = 1.50347e-05, global = -6.63704e-06, cumulative = 1.48359e-05
smoothSolver:  Solving for omega, Initial residual = 0.000152146, Final residual = 1.39218e-05, No Iterations 2
smoothSolver:  Solving for k, Initial residual = 0.000497869, Final residual = 1.9993e-05, No Iterations 3
ExecutionTime = 0.83 s  ClockTime = 2 s

forceCoeffs forceCoeffs_object write:
    Cm    = 0.063592
    Cd    = 0.0492745
    Cl    = 0.00440236
    Cl(f) = 0.0657931
    Cl(r) = -0.0613908

Time = 27

smoothSolver:  Solving for Ux, Initial residual = 0.00541344, Final residual = 0.000511041, No Iterations 9
smoothSolver:  Solving for Uy, Initial residual = 0.0136491, Final residual = 0.00125234, No Iterations 11
GAMG:  Solving for p, Initial residual = 0.0254087, Final residual = 0.000227439, No Iterations 18
time step continuity errors : sum local = 1.03902e-05, global = 4.30571e-06, cumulative = 1.91416e-05
smoothSolver:  Solving for omega, Initial residual = 0.00013366, Final residual = 1.32987e-05, No Iterations 2
smoothSolver:  Solving for k, Initial residual = 0.000453763, Final residual = 1.85558e-05, No Iterations 3
ExecutionTime = 0.86 s  ClockTime = 2 s

forceCoeffs forceCoeffs_object write:
    Cm    = 0.0527367
    Cd    = 0.0708117
    Cl    = 0.0029195
    Cl(f) = 0.0541964
    Cl(r) = -0.0512769

Time = 28

smoothSolver:  Solving for Ux, Initial residual = 0.00618315, Final residual = 0.000613541, No Iterations 8
smoothSolver:  Solving for Uy, Initial residual = 0.0122384, Final residual = 0.00112012, No Iterations 11
GAMG:  Solving for p, Initial residual = 0.0399399, Final residual = 0.000385056, No Iterations 18
time step continuity errors : sum local = 1.03655e-05, global = 3.54032e-06, cumulative = 2.26819e-05
smoothSolver:  Solving for omega, Initial residual = 0.000118184, Final residual = 5.23823e-06, No Iterations 3
smoothSolver:  Solving for k, Initial residual = 0.000408662, Final residual = 1.75511e-05, No Iterations 3
ExecutionTime = 0.89 s  ClockTime = 2 s

forceCoeffs forceCoeffs_object write:
    Cm    = 0.0421221
    Cd    = 0.0917817
    Cl    = 0.00173469
    Cl(f) = 0.0429894
    Cl(r) = -0.0412548

Time = 29

smoothSolver:  Solving for Ux, Initial residual = 0.00696699, Final residual = 0.000625067, No Iterations 8
smoothSolver:  Solving for Uy, Initial residual = 0.0117792, Final residual = 0.00107567, No Iterations 11
GAMG:  Solving for p, Initial residual = 0.0537439, Final residual = 0.000535506, No Iterations 17
time step continuity errors : sum local = 1.07878e-05, global = -3.22503e-06, cumulative = 1.94568e-05
smoothSolver:  Solving for omega, Initial residual = 0.000106946, Final residual = 5.22114e-06, No Iterations 3
smoothSolver:  Solving for k, Initial residual = 0.000384511, Final residual = 1.83449e-05, No Iterations 3
ExecutionTime = 0.91 s  ClockTime = 2 s

forceCoeffs forceCoeffs_object write:
    Cm    = 0.0331411
    Cd    = 0.109514
    Cl    = 0.00096828
    Cl(f) = 0.0336252
    Cl(r) = -0.032657

Time = 30

smoothSolver:  Solving for Ux, Initial residual = 0.00778278, Final residual = 0.000659773, No Iterations 8
smoothSolver:  Solving for Uy, Initial residual = 0.0120587, Final residual = 0.00110261, No Iterations 11
GAMG:  Solving for p, Initial residual = 0.0424798, Final residual = 0.000397625, No Iterations 17
time step continuity errors : sum local = 1.02209e-05, global = -2.7926e-06, cumulative = 1.66643e-05
smoothSolver:  Solving for omega, Initial residual = 0.000102104, Final residual = 5.4425e-06, No Iterations 3
smoothSolver:  Solving for k, Initial residual = 0.000372444, Final residual = 1.83987e-05, No Iterations 3
ExecutionTime = 0.94 s  ClockTime = 2 s

forceCoeffs forceCoeffs_object write:
    Cm    = 0.025704
    Cd    = 0.124618
    Cl    = 0.000439643
    Cl(f) = 0.0259238
    Cl(r) = -0.0254842

Time = 31

smoothSolver:  Solving for Ux, Initial residual = 0.00855212, Final residual = 0.000711454, No Iterations 8
smoothSolver:  Solving for Uy, Initial residual = 0.0132177, Final residual = 0.00117987, No Iterations 11
GAMG:  Solving for p, Initial residual = 0.0370287, Final residual = 0.000354379, No Iterations 17
time step continuity errors : sum local = 1.00281e-05, global = -2.57291e-06, cumulative = 1.40913e-05
smoothSolver:  Solving for omega, Initial residual = 9.67626e-05, Final residual = 5.44705e-06, No Iterations 3
smoothSolver:  Solving for k, Initial residual = 0.000363004, Final residual = 1.86609e-05, No Iterations 3
ExecutionTime = 0.97 s  ClockTime = 2 s

forceCoeffs forceCoeffs_object write:
    Cm    = 0.0196703
    Cd    = 0.137447
    Cl    = 3.86768e-05
    Cl(f) = 0.0196897
    Cl(r) = -0.019651

Time = 32

smoothSolver:  Solving for Ux, Initial residual = 0.00932263, Final residual = 0.000802947, No Iterations 8
smoothSolver:  Solving for Uy, Initial residual = 0.0153585, Final residual = 0.00152626, No Iterations 10
GAMG:  Solving for p, Initial residual = 0.0352383, Final residual = 0.000321221, No Iterations 17
time step continuity errors : sum local = 9.25308e-06, global = -2.2576e-06, cumulative = 1.18337e-05
smoothSolver:  Solving for omega, Initial residual = 9.20503e-05, Final residual = 5.52905e-06, No Iterations 3
smoothSolver:  Solving for k, Initial residual = 0.000348015, Final residual = 1.84982e-05, No Iterations 3
ExecutionTime = 0.99 s  ClockTime = 2 s

forceCoeffs forceCoeffs_object write:
    Cm    = 0.0149696
    Cd    = 0.148024
    Cl    = -0.00030199
    Cl(f) = 0.0148186
    Cl(r) = -0.0151206

Time = 33

smoothSolver:  Solving for Ux, Initial residual = 0.00982586, Final residual = 0.000896028, No Iterations 8
smoothSolver:  Solving for Uy, Initial residual = 0.0184932, Final residual = 0.00177483, No Iterations 10
GAMG:  Solving for p, Initial residual = 0.0351739, Final residual = 0.000349743, No Iterations 15
time step continuity errors : sum local = 1.01722e-05, global = -2.59981e-06, cumulative = 9.23393e-06
smoothSolver:  Solving for omega, Initial residual = 8.57843e-05, Final residual = 5.34329e-06, No Iterations 3
smoothSolver:  Solving for k, Initial residual = 0.000331161, Final residual = 1.77566e-05, No Iterations 3
ExecutionTime = 1.02 s  ClockTime = 2 s

forceCoeffs forceCoeffs_object write:
    Cm    = 0.0113843
    Cd    = 0.156509
    Cl    = -0.000604481
    Cl(f) = 0.0110821
    Cl(r) = -0.0116865

Time = 34

smoothSolver:  Solving for Ux, Initial residual = 0.00987633, Final residual = 0.000968171, No Iterations 8
smoothSolver:  Solving for Uy, Initial residual = 0.0230514, Final residual = 0.0021515, No Iterations 10
GAMG:  Solving for p, Initial residual = 0.0339542, Final residual = 0.000315686, No Iterations 13
time step continuity errors : sum local = 9.39899e-06, global = -2.00533e-06, cumulative = 7.2286e-06
smoothSolver:  Solving for omega, Initial residual = 8.1797e-05, Final residual = 5.21849e-06, No Iterations 3
smoothSolver:  Solving for k, Initial residual = 0.000321367, Final residual = 1.71942e-05, No Iterations 3
ExecutionTime = 1.04 s  ClockTime = 2 s

forceCoeffs forceCoeffs_object write:
    Cm    = 0.00849903
    Cd    = 0.163631
    Cl    = -0.000866503
    Cl(f) = 0.00806578
    Cl(r) = -0.00893229

Time = 35

smoothSolver:  Solving for Ux, Initial residual = 0.00960227, Final residual = 0.000885823, No Iterations 9
smoothSolver:  Solving for Uy, Initial residual = 0.0298326, Final residual = 0.0027453, No Iterations 10
GAMG:  Solving for p, Initial residual = 0.0311935, Final residual = 0.000269239, No Iterations 16
time step continuity errors : sum local = 8.27988e-06, global = -1.86121e-06, cumulative = 5.36739e-06
smoothSolver:  Solving for omega, Initial residual = 7.80644e-05, Final residual = 5.12467e-06, No Iterations 3
smoothSolver:  Solving for k, Initial residual = 0.00031352, Final residual = 1.7821e-05, No Iterations 3
ExecutionTime = 1.07 s  ClockTime = 2 s

forceCoeffs forceCoeffs_object write:
    Cm    = 0.00617861
    Cd    = 0.169492
    Cl    = -0.00108436
    Cl(f) = 0.00563643
    Cl(r) = -0.00672079

Time = 36

smoothSolver:  Solving for Ux, Initial residual = 0.00915731, Final residual = 0.000914026, No Iterations 9
smoothSolver:  Solving for Uy, Initial residual = 0.0403253, Final residual = 0.00374276, No Iterations 10
GAMG:  Solving for p, Initial residual = 0.0293458, Final residual = 0.000288954, No Iterations 15
time step continuity errors : sum local = 8.94329e-06, global = 1.98768e-06, cumulative = 7.35507e-06
smoothSolver:  Solving for omega, Initial residual = 7.41961e-05, Final residual = 4.95927e-06, No Iterations 3
smoothSolver:  Solving for k, Initial residual = 0.000302623, Final residual = 1.83778e-05, No Iterations 3
ExecutionTime = 1.09 s  ClockTime = 2 s

forceCoeffs forceCoeffs_object write:
    Cm    = 0.00436712
    Cd    = 0.174237
    Cl    = -0.00124203
    Cl(f) = 0.00374611
    Cl(r) = -0.00498814

Time = 37

smoothSolver:  Solving for Ux, Initial residual = 0.0085741, Final residual = 0.000783748, No Iterations 10
smoothSolver:  Solving for Uy, Initial residual = 0.0573693, Final residual = 0.00540845, No Iterations 10
GAMG:  Solving for p, Initial residual = 0.0280346, Final residual = 0.000267977, No Iterations 15
time step continuity errors : sum local = 8.25513e-06, global = 1.86458e-06, cumulative = 9.21966e-06
smoothSolver:  Solving for omega, Initial residual = 7.15836e-05, Final residual = 4.9573e-06, No Iterations 3
smoothSolver:  Solving for k, Initial residual = 0.000287304, Final residual = 1.79655e-05, No Iterations 3
ExecutionTime = 1.12 s  ClockTime = 2 s

forceCoeffs forceCoeffs_object write:
    Cm    = 0.00289066
    Cd    = 0.178271
    Cl    = -0.00137779
    Cl(f) = 0.00220177
    Cl(r) = -0.00357956

Time = 38

smoothSolver:  Solving for Ux, Initial residual = 0.00792412, Final residual = 0.000743007, No Iterations 10
smoothSolver:  Solving for Uy, Initial residual = 0.0792224, Final residual = 0.00776745, No Iterations 10
GAMG:  Solving for p, Initial residual = 0.0272961, Final residual = 0.000256395, No Iterations 15
time step continuity errors : sum local = 7.78432e-06, global = 1.91861e-06, cumulative = 1.11383e-05
smoothSolver:  Solving for omega, Initial residual = 6.94547e-05, Final residual = 4.86803e-06, No Iterations 3
smoothSolver:  Solving for k, Initial residual = 0.0002742, Final residual = 1.76803e-05, No Iterations 3
ExecutionTime = 1.15 s  ClockTime = 2 s

forceCoeffs forceCoeffs_object write:
    Cm    = 0.00177381
    Cd    = 0.181544
    Cl    = -0.0014874
    Cl(f) = 0.00103011
    Cl(r) = -0.00251751

Time = 39

smoothSolver:  Solving for Ux, Initial residual = 0.00734803, Final residual = 0.000683149, No Iterations 10
smoothSolver:  Solving for Uy, Initial residual = 0.0601503, Final residual = 0.00545452, No Iterations 11
GAMG:  Solving for p, Initial residual = 0.0258811, Final residual = 0.000246533, No Iterations 16
time step continuity errors : sum local = 7.39076e-06, global = -1.4593e-06, cumulative = 9.67897e-06
smoothSolver:  Solving for omega, Initial residual = 6.68376e-05, Final residual = 4.62545e-06, No Iterations 3
smoothSolver:  Solving for k, Initial residual = 0.000256669, Final residual = 1.66961e-05, No Iterations 3
ExecutionTime = 1.17 s  ClockTime = 2 s

forceCoeffs forceCoeffs_object write:
    Cm    = 0.000951598
    Cd    = 0.18417
    Cl    = -0.00158027
    Cl(f) = 0.000161465
    Cl(r) = -0.00174173

Time = 40

smoothSolver:  Solving for Ux, Initial residual = 0.0069316, Final residual = 0.000612527, No Iterations 10
smoothSolver:  Solving for Uy, Initial residual = 0.0393827, Final residual = 0.00372835, No Iterations 11
GAMG:  Solving for p, Initial residual = 0.0236314, Final residual = 0.000202845, No Iterations 17
time step continuity errors : sum local = 5.99211e-06, global = 1.51883e-06, cumulative = 1.11978e-05
smoothSolver:  Solving for omega, Initial residual = 6.52972e-05, Final residual = 4.63211e-06, No Iterations 3
smoothSolver:  Solving for k, Initial residual = 0.000242251, Final residual = 1.60101e-05, No Iterations 3
ExecutionTime = 1.2 s  ClockTime = 2 s

forceCoeffs forceCoeffs_object write:
    Cm    = 0.000358927
    Cd    = 0.186343
    Cl    = -0.00166681
    Cl(f) = -0.000474476
    Cl(r) = -0.00119233

Time = 41

smoothSolver:  Solving for Ux, Initial residual = 0.00654457, Final residual = 0.000629573, No Iterations 9
smoothSolver:  Solving for Uy, Initial residual = 0.0296843, Final residual = 0.00291587, No Iterations 11
GAMG:  Solving for p, Initial residual = 0.0217687, Final residual = 0.000210999, No Iterations 16
time step continuity errors : sum local = 6.17881e-06, global = -1.13445e-06, cumulative = 1.00633e-05
smoothSolver:  Solving for omega, Initial residual = 6.25581e-05, Final residual = 4.48064e-06, No Iterations 3
smoothSolver:  Solving for k, Initial residual = 0.000229104, Final residual = 1.50768e-05, No Iterations 3
ExecutionTime = 1.22 s  ClockTime = 2 s

forceCoeffs forceCoeffs_object write:
    Cm    = -9.36316e-06
    Cd    = 0.188026
    Cl    = -0.00173656
    Cl(f) = -0.000877644
    Cl(r) = -0.000858917

Time = 42

smoothSolver:  Solving for Ux, Initial residual = 0.00607205, Final residual = 0.000551602, No Iterations 9
smoothSolver:  Solving for Uy, Initial residual = 0.0241404, Final residual = 0.00215391, No Iterations 12
GAMG:  Solving for p, Initial residual = 0.02026, Final residual = 0.000189587, No Iterations 16
time step continuity errors : sum local = 5.47153e-06, global = -1.00344e-06, cumulative = 9.0599e-06
smoothSolver:  Solving for omega, Initial residual = 6.0759e-05, Final residual = 4.37851e-06, No Iterations 3
smoothSolver:  Solving for k, Initial residual = 0.00021467, Final residual = 1.45258e-05, No Iterations 3
ExecutionTime = 1.25 s  ClockTime = 3 s

forceCoeffs forceCoeffs_object write:
    Cm    = -0.00026876
    Cd    = 0.18952
    Cl    = -0.0018064
    Cl(f) = -0.00117196
    Cl(r) = -0.000634438

Time = 43

smoothSolver:  Solving for Ux, Initial residual = 0.00553758, Final residual = 0.000479946, No Iterations 9
smoothSolver:  Solving for Uy, Initial residual = 0.0207529, Final residual = 0.00189425, No Iterations 12
GAMG:  Solving for p, Initial residual = 0.018695, Final residual = 0.000166318, No Iterations 16
time step continuity errors : sum local = 4.70315e-06, global = -8.85142e-07, cumulative = 8.17476e-06
smoothSolver:  Solving for omega, Initial residual = 5.92608e-05, Final residual = 4.30853e-06, No Iterations 3
smoothSolver:  Solving for k, Initial residual = 0.000206845, Final residual = 1.42692e-05, No Iterations 3
ExecutionTime = 1.28 s  ClockTime = 3 s

forceCoeffs forceCoeffs_object write:
    Cm    = -0.000447081
    Cd    = 0.19091
    Cl    = -0.0018823
    Cl(f) = -0.00138823
    Cl(r) = -0.000494067

Time = 44

smoothSolver:  Solving for Ux, Initial residual = 0.0049541, Final residual = 0.000486186, No Iterations 8
smoothSolver:  Solving for Uy, Initial residual = 0.0185757, Final residual = 0.00172562, No Iterations 12
GAMG:  Solving for p, Initial residual = 0.0177202, Final residual = 0.000174143, No Iterations 15
time step continuity errors : sum local = 4.8231e-06, global = 1.16001e-06, cumulative = 9.33477e-06
smoothSolver:  Solving for omega, Initial residual = 5.77211e-05, Final residual = 4.27915e-06, No Iterations 3
smoothSolver:  Solving for k, Initial residual = 0.000197269, Final residual = 1.35982e-05, No Iterations 3
ExecutionTime = 1.3 s  ClockTime = 3 s

forceCoeffs forceCoeffs_object write:
    Cm    = -0.00053005
    Cd    = 0.192121
    Cl    = -0.00195807
    Cl(f) = -0.00150908
    Cl(r) = -0.000448983

Time = 45

smoothSolver:  Solving for Ux, Initial residual = 0.00437217, Final residual = 0.000420596, No Iterations 8
smoothSolver:  Solving for Uy, Initial residual = 0.0170613, Final residual = 0.0016056, No Iterations 12
GAMG:  Solving for p, Initial residual = 0.0164699, Final residual = 0.000144362, No Iterations 16
time step continuity errors : sum local = 3.90247e-06, global = -7.10336e-07, cumulative = 8.62444e-06
smoothSolver:  Solving for omega, Initial residual = 5.60637e-05, Final residual = 4.18318e-06, No Iterations 3
smoothSolver:  Solving for k, Initial residual = 0.00019217, Final residual = 1.32532e-05, No Iterations 3
ExecutionTime = 1.32 s  ClockTime = 3 s

forceCoeffs forceCoeffs_object write:
    Cm    = -0.000579624
    Cd    = 0.193332
    Cl    = -0.00204512
    Cl(f) = -0.00160219
    Cl(r) = -0.000442938

Time = 46

smoothSolver:  Solving for Ux, Initial residual = 0.00384352, Final residual = 0.000367705, No Iterations 8
smoothSolver:  Solving for Uy, Initial residual = 0.0160152, Final residual = 0.00152101, No Iterations 12
GAMG:  Solving for p, Initial residual = 0.0154248, Final residual = 0.000140074, No Iterations 16
time step continuity errors : sum local = 3.71509e-06, global = -6.18518e-07, cumulative = 8.00592e-06
smoothSolver:  Solving for omega, Initial residual = 5.54721e-05, Final residual = 4.21374e-06, No Iterations 3
smoothSolver:  Solving for k, Initial residual = 0.000185937, Final residual = 1.28903e-05, No Iterations 3
ExecutionTime = 1.35 s  ClockTime = 3 s

forceCoeffs forceCoeffs_object write:
    Cm    = -0.000588547
    Cd    = 0.194499
    Cl    = -0.00214005
    Cl(f) = -0.00165857
    Cl(r) = -0.000481476

Time = 47

smoothSolver:  Solving for Ux, Initial residual = 0.00338435, Final residual = 0.000325562, No Iterations 8
smoothSolver:  Solving for Uy, Initial residual = 0.0152344, Final residual = 0.00145154, No Iterations 12
GAMG:  Solving for p, Initial residual = 0.0143434, Final residual = 0.00012862, No Iterations 16
time step continuity errors : sum local = 3.36634e-06, global = -5.4105e-07, cumulative = 7.46487e-06
smoothSolver:  Solving for omega, Initial residual = 5.33917e-05, Final residual = 4.01588e-06, No Iterations 3
smoothSolver:  Solving for k, Initial residual = 0.000180461, Final residual = 1.27802e-05, No Iterations 3
ExecutionTime = 1.38 s  ClockTime = 3 s

forceCoeffs forceCoeffs_object write:
    Cm    = -0.000569162
    Cd    = 0.195641
    Cl    = -0.00224059
    Cl(f) = -0.00168945
    Cl(r) = -0.000551131

Time = 48

smoothSolver:  Solving for Ux, Initial residual = 0.00301675, Final residual = 0.000294763, No Iterations 8
smoothSolver:  Solving for Uy, Initial residual = 0.0146457, Final residual = 0.00138564, No Iterations 12
GAMG:  Solving for p, Initial residual = 0.0133662, Final residual = 0.000113531, No Iterations 16
time step continuity errors : sum local = 2.94199e-06, global = -4.74798e-07, cumulative = 6.99007e-06
smoothSolver:  Solving for omega, Initial residual = 5.25624e-05, Final residual = 4.0534e-06, No Iterations 3
smoothSolver:  Solving for k, Initial residual = 0.000177717, Final residual = 1.28185e-05, No Iterations 3
ExecutionTime = 1.4 s  ClockTime = 3 s

forceCoeffs forceCoeffs_object write:
    Cm    = -0.000529474
    Cd    = 0.196765
    Cl    = -0.00234475
    Cl(f) = -0.00170185
    Cl(r) = -0.0006429

Time = 49

smoothSolver:  Solving for Ux, Initial residual = 0.00273892, Final residual = 0.000238058, No Iterations 9
smoothSolver:  Solving for Uy, Initial residual = 0.0141582, Final residual = 0.00131525, No Iterations 12
GAMG:  Solving for p, Initial residual = 0.0122092, Final residual = 0.00010031, No Iterations 16
time step continuity errors : sum local = 2.57889e-06, global = -4.19942e-07, cumulative = 6.57013e-06
smoothSolver:  Solving for omega, Initial residual = 5.13998e-05, Final residual = 4.04346e-06, No Iterations 3
smoothSolver:  Solving for k, Initial residual = 0.000171311, Final residual = 1.23742e-05, No Iterations 3
ExecutionTime = 1.43 s  ClockTime = 3 s

forceCoeffs forceCoeffs_object write:
    Cm    = -0.000480303
    Cd    = 0.197909
    Cl    = -0.00245033
    Cl(f) = -0.00170547
    Cl(r) = -0.000744863

Time = 50

smoothSolver:  Solving for Ux, Initial residual = 0.00254286, Final residual = 0.000237574, No Iterations 9
smoothSolver:  Solving for Uy, Initial residual = 0.0137298, Final residual = 0.00123542, No Iterations 12
GAMG:  Solving for p, Initial residual = 0.0113263, Final residual = 8.78053e-05, No Iterations 16
time step continuity errors : sum local = 2.2504e-06, global = -3.68031e-07, cumulative = 6.2021e-06
smoothSolver:  Solving for omega, Initial residual = 5.01584e-05, Final residual = 3.98483e-06, No Iterations 3
smoothSolver:  Solving for k, Initial residual = 0.000166206, Final residual = 1.19202e-05, No Iterations 3
ExecutionTime = 1.5 s  ClockTime = 3 s

forceCoeffs forceCoeffs_object write:
    Cm    = -0.000418091
    Cd    = 0.199027
    Cl    = -0.00255763
    Cl(f) = -0.0016969
    Cl(r) = -0.000860722

yPlus yPlus write:
    writing object yPlus
    patch suction_side y+ : min = 4.86012, max = 52.8472, average = 30.7209
    patch pressure_side y+ : min = 4.32826, max = 48.652, average = 29.8076
    patch trailing_edge y+ : min = 97.4226, max = 99.7573, average = 98.59

Time = 51

smoothSolver:  Solving for Ux, Initial residual = 0.00242977, Final residual = 0.000217887, No Iterations 10
smoothSolver:  Solving for Uy, Initial residual = 0.0132891, Final residual = 0.00131311, No Iterations 11
GAMG:  Solving for p, Initial residual = 0.0104424, Final residual = 8.27996e-05, No Iterations 16
time step continuity errors : sum local = 2.1134e-06, global = -3.30374e-07, cumulative = 5.87172e-06
smoothSolver:  Solving for omega, Initial residual = 4.90988e-05, Final residual = 3.93787e-06, No Iterations 3
smoothSolver:  Solving for k, Initial residual = 0.000161059, Final residual = 1.17018e-05, No Iterations 3
ExecutionTime = 1.52 s  ClockTime = 3 s

forceCoeffs forceCoeffs_object write:
    Cm    = -0.000346094
    Cd    = 0.200119
    Cl    = -0.00266455
    Cl(f) = -0.00167837
    Cl(r) = -0.000986181

Time = 52

smoothSolver:  Solving for Ux, Initial residual = 0.00233656, Final residual = 0.000203986, No Iterations 11
smoothSolver:  Solving for Uy, Initial residual = 0.0128572, Final residual = 0.00122436, No Iterations 11
GAMG:  Solving for p, Initial residual = 0.0096926, Final residual = 7.8467e-05, No Iterations 16
time step continuity errors : sum local = 1.99736e-06, global = -3.00837e-07, cumulative = 5.57089e-06
smoothSolver:  Solving for omega, Initial residual = 4.84664e-05, Final residual = 3.92349e-06, No Iterations 3
smoothSolver:  Solving for k, Initial residual = 0.000155053, Final residual = 1.12333e-05, No Iterations 3
ExecutionTime = 1.55 s  ClockTime = 3 s


SIMPLE solution converged in 52 iterations

forceCoeffs forceCoeffs_object write:
    Cm    = -0.000276463
    Cd    = 0.201237
    Cl    = -0.00277172
    Cl(f) = -0.00166233
    Cl(r) = -0.0011094

yPlus yPlus write:
    writing object yPlus
    patch suction_side y+ : min = 4.87277, max = 52.9048, average = 30.7158
    patch pressure_side y+ : min = 4.33032, max = 48.6377, average = 29.8467
    patch trailing_edge y+ : min = 97.5297, max = 100.13, average = 98.8298

End

